MODEL 1
REMARK VINA RESULT:    -4.425      0.000      0.000
REMARK INTER + INTRA:          -4.684
REMARK INTER:                  -4.684
REMARK INTRA:                   0.000
REMARK UNBOUND:                 0.000
REMARK  Name = opt01.pdb
REMARK  2 active torsions:
REMARK  status: ('A' for Active; 'I' for Inactive)
REMARK    1  A    between atoms: O_1  and  C_2
REMARK    2  A    between atoms: C_3  and  O_5
REMARK                            x       y       z     vdW  Elec       q    Type
REMARK                         _______ _______ _______ _____ _____    ______ ____
ROOT
ATOM      1  C   UNL     1      13.110  12.053  44.069  0.00  0.00    +0.000 A 
ATOM      2  C   UNL     1      14.456  11.858  44.391  0.00  0.00    +0.000 A 
ATOM      3  C   UNL     1      12.567  13.337  44.096  0.00  0.00    +0.000 A 
ATOM      4  C   UNL     1      15.246  12.944  44.766  0.00  0.00    +0.000 A 
ATOM      5  C   UNL     1      13.361  14.423  44.463  0.00  0.00    +0.000 A 
ATOM      6  C   UNL     1      14.698  14.226  44.802  0.00  0.00    +0.000 A 
ENDROOT
BRANCH   1   7
ATOM      7  O   UNL     1      12.310  10.991  43.757  0.00  0.00    +0.000 OA
ATOM      8  H   UNL     1      12.275  10.384  44.519  0.00  0.00    +0.000 HD
ENDBRANCH   1   7
BRANCH   2   9
ATOM      9  O   UNL     1      15.015  10.616  44.310  0.00  0.00    +0.000 OA
ATOM     10  H   UNL     1      15.966  10.706  44.116  0.00  0.00    +0.000 HD
ENDBRANCH   2   9
TORSDOF 2
ENDMDL
MODEL 2
REMARK VINA RESULT:    -4.333      0.327      2.221
REMARK INTER + INTRA:          -4.586
REMARK INTER:                  -4.586
REMARK INTRA:                   0.000
REMARK UNBOUND:                 0.000
REMARK  Name = opt01.pdb
REMARK  2 active torsions:
REMARK  status: ('A' for Active; 'I' for Inactive)
REMARK    1  A    between atoms: O_1  and  C_2
REMARK    2  A    between atoms: C_3  and  O_5
REMARK                            x       y       z     vdW  Elec       q    Type
REMARK                         _______ _______ _______ _____ _____    ______ ____
ROOT
ATOM      1  C   UNL     1      14.376  11.720  44.360  0.00  0.00    +0.000 A 
ATOM      2  C   UNL     1      13.078  11.922  43.884  0.00  0.00    +0.000 A 
ATOM      3  C   UNL     1      15.189  12.815  44.648  0.00  0.00    +0.000 A 
ATOM      4  C   UNL     1      12.609  13.217  43.670  0.00  0.00    +0.000 A 
ATOM      5  C   UNL     1      14.716  14.110  44.442  0.00  0.00    +0.000 A 
ATOM      6  C   UNL     1      13.428  14.311  43.948  0.00  0.00    +0.000 A 
ENDROOT
BRANCH   1   7
ATOM      7  O   UNL     1      14.869  10.456  44.518  0.00  0.00    +0.000 OA
ATOM      8  H   UNL     1      15.764  10.509  44.901  0.00  0.00    +0.000 HD
ENDBRANCH   1   7
BRANCH   2   9
ATOM      9  O   UNL     1      12.250  10.861  43.655  0.00  0.00    +0.000 OA
ATOM     10  H   UNL     1      12.550  10.389  42.857  0.00  0.00    +0.000 HD
ENDBRANCH   2   9
TORSDOF 2
ENDMDL
MODEL 3
REMARK VINA RESULT:    -4.169      1.243      2.397
REMARK INTER + INTRA:          -4.413
REMARK INTER:                  -4.413
REMARK INTRA:                   0.000
REMARK UNBOUND:                 0.000
REMARK  Name = opt01.pdb
REMARK  2 active torsions:
REMARK  status: ('A' for Active; 'I' for Inactive)
REMARK    1  A    between atoms: O_1  and  C_2
REMARK    2  A    between atoms: C_3  and  O_5
REMARK                            x       y       z     vdW  Elec       q    Type
REMARK                         _______ _______ _______ _____ _____    ______ ____
ROOT
ATOM      1  C   UNL     1      14.411  13.115  44.920  0.00  0.00    +0.000 A 
ATOM      2  C   UNL     1      14.148  11.864  44.354  0.00  0.00    +0.000 A 
ATOM      3  C   UNL     1      13.481  14.145  44.792  0.00  0.00    +0.000 A 
ATOM      4  C   UNL     1      12.970  11.659  43.638  0.00  0.00    +0.000 A 
ATOM      5  C   UNL     1      12.299  13.935  44.083  0.00  0.00    +0.000 A 
ATOM      6  C   UNL     1      12.046  12.694  43.502  0.00  0.00    +0.000 A 
ENDROOT
BRANCH   1   7
ATOM      7  O   UNL     1      15.587  13.348  45.574  0.00  0.00    +0.000 OA
ATOM      8  H   UNL     1      15.483  14.128  46.149  0.00  0.00    +0.000 HD
ENDBRANCH   1   7
BRANCH   2   9
ATOM      9  O   UNL     1      15.022  10.829  44.523  0.00  0.00    +0.000 OA
ATOM     10  H   UNL     1      15.406  10.593  43.659  0.00  0.00    +0.000 HD
ENDBRANCH   2   9
TORSDOF 2
ENDMDL
MODEL 4
REMARK VINA RESULT:    -3.990      1.098      1.889
REMARK INTER + INTRA:          -4.224
REMARK INTER:                  -4.224
REMARK INTRA:                   0.000
REMARK UNBOUND:                 0.000
REMARK  Name = opt01.pdb
REMARK  2 active torsions:
REMARK  status: ('A' for Active; 'I' for Inactive)
REMARK    1  A    between atoms: O_1  and  C_2
REMARK    2  A    between atoms: C_3  and  O_5
REMARK                            x       y       z     vdW  Elec       q    Type
REMARK                         _______ _______ _______ _____ _____    ______ ____
ROOT
ATOM      1  C   UNL     1      14.088  12.023  44.336  0.00  0.00    +0.000 A 
ATOM      2  C   UNL     1      14.741  13.137  44.870  0.00  0.00    +0.000 A 
ATOM      3  C   UNL     1      12.801  12.155  43.816  0.00  0.00    +0.000 A 
ATOM      4  C   UNL     1      14.095  14.372  44.907  0.00  0.00    +0.000 A 
ATOM      5  C   UNL     1      12.159  13.392  43.845  0.00  0.00    +0.000 A 
ATOM      6  C   UNL     1      12.804  14.499  44.395  0.00  0.00    +0.000 A 
ENDROOT
BRANCH   1   7
ATOM      7  O   UNL     1      14.686  10.796  44.348  0.00  0.00    +0.000 OA
ATOM      8  H   UNL     1      14.028  10.123  44.604  0.00  0.00    +0.000 HD
ENDBRANCH   1   7
BRANCH   2   9
ATOM      9  O   UNL     1      16.023  13.035  45.328  0.00  0.00    +0.000 OA
ATOM     10  H   UNL     1      16.047  13.290  46.268  0.00  0.00    +0.000 HD
ENDBRANCH   2   9
TORSDOF 2
ENDMDL
MODEL 5
REMARK VINA RESULT:    -3.961      2.468      3.642
REMARK INTER + INTRA:          -4.193
REMARK INTER:                  -4.193
REMARK INTRA:                   0.000
REMARK UNBOUND:                 0.000
REMARK  Name = opt01.pdb
REMARK  2 active torsions:
REMARK  status: ('A' for Active; 'I' for Inactive)
REMARK    1  A    between atoms: O_1  and  C_2
REMARK    2  A    between atoms: C_3  and  O_5
REMARK                            x       y       z     vdW  Elec       q    Type
REMARK                         _______ _______ _______ _____ _____    ______ ____
ROOT
ATOM      1  C   UNL     1      16.379  13.663  45.064  0.00  0.00    +0.000 A 
ATOM      2  C   UNL     1      15.222  13.099  44.520  0.00  0.00    +0.000 A 
ATOM      3  C   UNL     1      17.339  14.227  44.224  0.00  0.00    +0.000 A 
ATOM      4  C   UNL     1      15.043  13.075  43.138  0.00  0.00    +0.000 A 
ATOM      5  C   UNL     1      17.154  14.211  42.843  0.00  0.00    +0.000 A 
ATOM      6  C   UNL     1      16.009  13.631  42.300  0.00  0.00    +0.000 A 
ENDROOT
BRANCH   1   7
ATOM      7  O   UNL     1      16.595  13.641  46.412  0.00  0.00    +0.000 OA
ATOM      8  H   UNL     1      16.468  12.732  46.740  0.00  0.00    +0.000 HD
ENDBRANCH   1   7
BRANCH   2   9
ATOM      9  O   UNL     1      14.247  12.597  45.333  0.00  0.00    +0.000 OA
ATOM     10  H   UNL     1      14.559  11.762  45.728  0.00  0.00    +0.000 HD
ENDBRANCH   2   9
TORSDOF 2
ENDMDL
MODEL 6
REMARK VINA RESULT:    -3.948      2.435      2.975
REMARK INTER + INTRA:          -4.179
REMARK INTER:                  -4.179
REMARK INTRA:                   0.000
REMARK UNBOUND:                 0.000
REMARK  Name = opt01.pdb
REMARK  2 active torsions:
REMARK  status: ('A' for Active; 'I' for Inactive)
REMARK    1  A    between atoms: O_1  and  C_2
REMARK    2  A    between atoms: C_3  and  O_5
REMARK                            x       y       z     vdW  Elec       q    Type
REMARK                         _______ _______ _______ _____ _____    ______ ____
ROOT
ATOM      1  C   UNL     1      15.139  13.130  44.609  0.00  0.00    +0.000 A 
ATOM      2  C   UNL     1      16.318  13.650  45.149  0.00  0.00    +0.000 A 
ATOM      3  C   UNL     1      14.946  13.132  43.228  0.00  0.00    +0.000 A 
ATOM      4  C   UNL     1      17.287  14.196  44.308  0.00  0.00    +0.000 A 
ATOM      5  C   UNL     1      15.920  13.670  42.388  0.00  0.00    +0.000 A 
ATOM      6  C   UNL     1      17.088  14.206  42.928  0.00  0.00    +0.000 A 
ENDROOT
BRANCH   1   7
ATOM      7  O   UNL     1      14.156  12.647  45.425  0.00  0.00    +0.000 OA
ATOM      8  H   UNL     1      14.276  11.686  45.533  0.00  0.00    +0.000 HD
ENDBRANCH   1   7
BRANCH   2   9
ATOM      9  O   UNL     1      16.547  13.600  46.494  0.00  0.00    +0.000 OA
ATOM     10  H   UNL     1      17.324  14.149  46.706  0.00  0.00    +0.000 HD
ENDBRANCH   2   9
TORSDOF 2
ENDMDL
MODEL 7
REMARK VINA RESULT:    -3.870      1.323      2.574
REMARK INTER + INTRA:          -4.096
REMARK INTER:                  -4.096
REMARK INTRA:                   0.000
REMARK UNBOUND:                 0.000
REMARK  Name = opt01.pdb
REMARK  2 active torsions:
REMARK  status: ('A' for Active; 'I' for Inactive)
REMARK    1  A    between atoms: O_1  and  C_2
REMARK    2  A    between atoms: C_3  and  O_5
REMARK                            x       y       z     vdW  Elec       q    Type
REMARK                         _______ _______ _______ _____ _____    ______ ____
ROOT
ATOM      1  C   UNL     1      13.717  12.764  44.780  0.00  0.00    +0.000 A 
ATOM      2  C   UNL     1      12.689  13.693  44.597  0.00  0.00    +0.000 A 
ATOM      3  C   UNL     1      15.034  13.202  44.909  0.00  0.00    +0.000 A 
ATOM      4  C   UNL     1      12.986  15.053  44.516  0.00  0.00    +0.000 A 
ATOM      5  C   UNL     1      15.329  14.562  44.837  0.00  0.00    +0.000 A 
ATOM      6  C   UNL     1      14.306  15.487  44.636  0.00  0.00    +0.000 A 
ENDROOT
BRANCH   1   7
ATOM      7  O   UNL     1      13.448  11.426  44.801  0.00  0.00    +0.000 OA
ATOM      8  H   UNL     1      13.317  11.112  43.888  0.00  0.00    +0.000 HD
ENDBRANCH   1   7
BRANCH   2   9
ATOM      9  O   UNL     1      11.388  13.284  44.529  0.00  0.00    +0.000 OA
ATOM     10  H   UNL     1      11.363  12.311  44.474  0.00  0.00    +0.000 HD
ENDBRANCH   2   9
TORSDOF 2
ENDMDL
MODEL 8
REMARK VINA RESULT:    -3.830      1.351      1.660
REMARK INTER + INTRA:          -4.053
REMARK INTER:                  -4.053
REMARK INTRA:                   0.000
REMARK UNBOUND:                 0.000
REMARK  Name = opt01.pdb
REMARK  2 active torsions:
REMARK  status: ('A' for Active; 'I' for Inactive)
REMARK    1  A    between atoms: O_1  and  C_2
REMARK    2  A    between atoms: C_3  and  O_5
REMARK                            x       y       z     vdW  Elec       q    Type
REMARK                         _______ _______ _______ _____ _____    ______ ____
ROOT
ATOM      1  C   UNL     1      12.771  13.749  44.630  0.00  0.00    +0.000 A 
ATOM      2  C   UNL     1      13.767  12.781  44.783  0.00  0.00    +0.000 A 
ATOM      3  C   UNL     1      13.117  15.098  44.561  0.00  0.00    +0.000 A 
ATOM      4  C   UNL     1      15.102  13.167  44.895  0.00  0.00    +0.000 A 
ATOM      5  C   UNL     1      14.453  15.482  44.665  0.00  0.00    +0.000 A 
ATOM      6  C   UNL     1      15.445  14.517  44.836  0.00  0.00    +0.000 A 
ENDROOT
BRANCH   1   7
ATOM      7  O   UNL     1      11.455  13.390  44.578  0.00  0.00    +0.000 OA
ATOM      8  H   UNL     1      11.372  12.446  44.809  0.00  0.00    +0.000 HD
ENDBRANCH   1   7
BRANCH   2   9
ATOM      9  O   UNL     1      13.448  11.453  44.791  0.00  0.00    +0.000 OA
ATOM     10  H   UNL     1      13.418  11.138  45.713  0.00  0.00    +0.000 HD
ENDBRANCH   2   9
TORSDOF 2
ENDMDL
MODEL 9
REMARK VINA RESULT:    -3.614      1.296      1.603
REMARK INTER + INTRA:          -3.825
REMARK INTER:                  -3.825
REMARK INTRA:                   0.000
REMARK UNBOUND:                 0.000
REMARK  Name = opt01.pdb
REMARK  2 active torsions:
REMARK  status: ('A' for Active; 'I' for Inactive)
REMARK    1  A    between atoms: O_1  and  C_2
REMARK    2  A    between atoms: C_3  and  O_5
REMARK                            x       y       z     vdW  Elec       q    Type
REMARK                         _______ _______ _______ _____ _____    ______ ____
ROOT
ATOM      1  C   UNL     1      13.369  12.945  44.608  0.00  0.00    +0.000 A 
ATOM      2  C   UNL     1      14.641  13.510  44.479  0.00  0.00    +0.000 A 
ATOM      3  C   UNL     1      12.246  13.768  44.678  0.00  0.00    +0.000 A 
ATOM      4  C   UNL     1      14.787  14.896  44.448  0.00  0.00    +0.000 A 
ATOM      5  C   UNL     1      12.393  15.154  44.638  0.00  0.00    +0.000 A 
ATOM      6  C   UNL     1      13.663  15.718  44.528  0.00  0.00    +0.000 A 
ENDROOT
BRANCH   1   7
ATOM      7  O   UNL     1      13.216  11.591  44.698  0.00  0.00    +0.000 OA
ATOM      8  H   UNL     1      12.370  11.394  45.140  0.00  0.00    +0.000 HD
ENDBRANCH   1   7
BRANCH   2   9
ATOM      9  O   UNL     1      15.743  12.714  44.349  0.00  0.00    +0.000 OA
ATOM     10  H   UNL     1      16.094  12.510  45.234  0.00  0.00    +0.000 HD
ENDBRANCH   2   9
TORSDOF 2
ENDMDL
MODEL 10
REMARK VINA RESULT:    -3.597      1.466      2.690
REMARK INTER + INTRA:          -3.807
REMARK INTER:                  -3.807
REMARK INTRA:                   0.000
REMARK UNBOUND:                 0.000
REMARK  Name = opt01.pdb
REMARK  2 active torsions:
REMARK  status: ('A' for Active; 'I' for Inactive)
REMARK    1  A    between atoms: O_1  and  C_2
REMARK    2  A    between atoms: C_3  and  O_5
REMARK                            x       y       z     vdW  Elec       q    Type
REMARK                         _______ _______ _______ _____ _____    ______ ____
ROOT
ATOM      1  C   UNL     1      14.687  13.775  44.714  0.00  0.00    +0.000 A 
ATOM      2  C   UNL     1      13.444  13.140  44.788  0.00  0.00    +0.000 A 
ATOM      3  C   UNL     1      14.754  15.164  44.627  0.00  0.00    +0.000 A 
ATOM      4  C   UNL     1      12.273  13.896  44.745  0.00  0.00    +0.000 A 
ATOM      5  C   UNL     1      13.583  15.919  44.593  0.00  0.00    +0.000 A 
ATOM      6  C   UNL     1      12.343  15.285  44.648  0.00  0.00    +0.000 A 
ENDROOT
BRANCH   1   7
ATOM      7  O   UNL     1      15.840  13.043  44.695  0.00  0.00    +0.000 OA
ATOM      8  H   UNL     1      16.248  13.114  43.812  0.00  0.00    +0.000 HD
ENDBRANCH   1   7
BRANCH   2   9
ATOM      9  O   UNL     1      13.365  11.785  44.934  0.00  0.00    +0.000 OA
ATOM     10  H   UNL     1      13.889  11.518  45.711  0.00  0.00    +0.000 HD
ENDBRANCH   2   9
TORSDOF 2
ENDMDL
MODEL 11
REMARK VINA RESULT:    -3.582      2.428      2.912
REMARK INTER + INTRA:          -3.792
REMARK INTER:                  -3.792
REMARK INTRA:                   0.000
REMARK UNBOUND:                 0.000
REMARK  Name = opt01.pdb
REMARK  2 active torsions:
REMARK  status: ('A' for Active; 'I' for Inactive)
REMARK    1  A    between atoms: O_1  and  C_2
REMARK    2  A    between atoms: C_3  and  O_5
REMARK                            x       y       z     vdW  Elec       q    Type
REMARK                         _______ _______ _______ _____ _____    ______ ____
ROOT
ATOM      1  C   UNL     1      15.277  13.418  45.043  0.00  0.00    +0.000 A 
ATOM      2  C   UNL     1      15.646  13.523  43.700  0.00  0.00    +0.000 A 
ATOM      3  C   UNL     1      13.932  13.292  45.387  0.00  0.00    +0.000 A 
ATOM      4  C   UNL     1      14.667  13.531  42.707  0.00  0.00    +0.000 A 
ATOM      5  C   UNL     1      12.954  13.290  44.392  0.00  0.00    +0.000 A 
ATOM      6  C   UNL     1      13.322  13.415  43.054  0.00  0.00    +0.000 A 
ENDROOT
BRANCH   1   7
ATOM      7  O   UNL     1      16.220  13.468  46.029  0.00  0.00    +0.000 OA
ATOM      8  H   UNL     1      15.986  12.831  46.728  0.00  0.00    +0.000 HD
ENDBRANCH   1   7
BRANCH   2   9
ATOM      9  O   UNL     1      16.964  13.587  43.346  0.00  0.00    +0.000 OA
ATOM     10  H   UNL     1      17.268  12.696  43.092  0.00  0.00    +0.000 HD
ENDBRANCH   2   9
TORSDOF 2
ENDMDL
MODEL 12
REMARK VINA RESULT:    -3.503      2.337      2.822
REMARK INTER + INTRA:          -3.708
REMARK INTER:                  -3.708
REMARK INTRA:                   0.000
REMARK UNBOUND:                 0.000
REMARK  Name = opt01.pdb
REMARK  2 active torsions:
REMARK  status: ('A' for Active; 'I' for Inactive)
REMARK    1  A    between atoms: O_1  and  C_2
REMARK    2  A    between atoms: C_3  and  O_5
REMARK                            x       y       z     vdW  Elec       q    Type
REMARK                         _______ _______ _______ _____ _____    ______ ____
ROOT
ATOM      1  C   UNL     1      15.426  13.470  43.521  0.00  0.00    +0.000 A 
ATOM      2  C   UNL     1      15.152  13.371  44.887  0.00  0.00    +0.000 A 
ATOM      3  C   UNL     1      14.379  13.516  42.602  0.00  0.00    +0.000 A 
ATOM      4  C   UNL     1      13.831  13.290  45.328  0.00  0.00    +0.000 A 
ATOM      5  C   UNL     1      13.059  13.444  43.045  0.00  0.00    +0.000 A 
ATOM      6  C   UNL     1      12.785  13.326  44.406  0.00  0.00    +0.000 A 
ENDROOT
BRANCH   1   7
ATOM      7  O   UNL     1      16.716  13.491  43.071  0.00  0.00    +0.000 OA
ATOM      8  H   UNL     1      17.314  13.640  43.826  0.00  0.00    +0.000 HD
ENDBRANCH   1   7
BRANCH   2   9
ATOM      9  O   UNL     1      16.166  13.385  45.801  0.00  0.00    +0.000 OA
ATOM     10  H   UNL     1      16.608  14.253  45.773  0.00  0.00    +0.000 HD
ENDBRANCH   2   9
TORSDOF 2
ENDMDL
MODEL 13
REMARK VINA RESULT:    -3.499      1.471      1.669
REMARK INTER + INTRA:          -3.703
REMARK INTER:                  -3.703
REMARK INTRA:                   0.000
REMARK UNBOUND:                 0.000
REMARK  Name = opt01.pdb
REMARK  2 active torsions:
REMARK  status: ('A' for Active; 'I' for Inactive)
REMARK    1  A    between atoms: O_1  and  C_2
REMARK    2  A    between atoms: C_3  and  O_5
REMARK                            x       y       z     vdW  Elec       q    Type
REMARK                         _______ _______ _______ _____ _____    ______ ____
ROOT
ATOM      1  C   UNL     1      13.398  12.705  44.295  0.00  0.00    +0.000 A 
ATOM      2  C   UNL     1      14.286  13.118  43.298  0.00  0.00    +0.000 A 
ATOM      3  C   UNL     1      12.625  13.648  44.971  0.00  0.00    +0.000 A 
ATOM      4  C   UNL     1      14.418  14.474  43.001  0.00  0.00    +0.000 A 
ATOM      5  C   UNL     1      12.751  15.002  44.668  0.00  0.00    +0.000 A 
ATOM      6  C   UNL     1      13.651  15.416  43.687  0.00  0.00    +0.000 A 
ENDROOT
BRANCH   1   7
ATOM      7  O   UNL     1      13.301  11.387  44.636  0.00  0.00    +0.000 OA
ATOM      8  H   UNL     1      12.718  11.300  45.412  0.00  0.00    +0.000 HD
ENDBRANCH   1   7
BRANCH   2   9
ATOM      9  O   UNL     1      15.004  12.201  42.586  0.00  0.00    +0.000 OA
ATOM     10  H   UNL     1      14.457  11.868  41.852  0.00  0.00    +0.000 HD
ENDBRANCH   2   9
TORSDOF 2
ENDMDL
MODEL 14
REMARK VINA RESULT:    -3.494      1.930      2.480
REMARK INTER + INTRA:          -3.698
REMARK INTER:                  -3.698
REMARK INTRA:                   0.000
REMARK UNBOUND:                 0.000
REMARK  Name = opt01.pdb
REMARK  2 active torsions:
REMARK  status: ('A' for Active; 'I' for Inactive)
REMARK    1  A    between atoms: O_1  and  C_2
REMARK    2  A    between atoms: C_3  and  O_5
REMARK                            x       y       z     vdW  Elec       q    Type
REMARK                         _______ _______ _______ _____ _____    ______ ____
ROOT
ATOM      1  C   UNL     1      14.772  12.982  43.193  0.00  0.00    +0.000 A 
ATOM      2  C   UNL     1      14.569  12.955  44.576  0.00  0.00    +0.000 A 
ATOM      3  C   UNL     1      15.920  13.575  42.670  0.00  0.00    +0.000 A 
ATOM      4  C   UNL     1      15.502  13.546  45.427  0.00  0.00    +0.000 A 
ATOM      5  C   UNL     1      16.856  14.157  43.523  0.00  0.00    +0.000 A 
ATOM      6  C   UNL     1      16.644  14.147  44.901  0.00  0.00    +0.000 A 
ENDROOT
BRANCH   1   7
ATOM      7  O   UNL     1      13.838  12.460  42.344  0.00  0.00    +0.000 OA
ATOM      8  H   UNL     1      12.967  12.846  42.552  0.00  0.00    +0.000 HD
ENDBRANCH   1   7
BRANCH   2   9
ATOM      9  O   UNL     1      13.479  12.325  45.105  0.00  0.00    +0.000 OA
ATOM     10  H   UNL     1      13.158  11.658  44.471  0.00  0.00    +0.000 HD
ENDBRANCH   2   9
TORSDOF 2
ENDMDL
MODEL 15
REMARK VINA RESULT:    -3.488      1.975      2.535
REMARK INTER + INTRA:          -3.692
REMARK INTER:                  -3.692
REMARK INTRA:                   0.000
REMARK UNBOUND:                 0.000
REMARK  Name = opt01.pdb
REMARK  2 active torsions:
REMARK  status: ('A' for Active; 'I' for Inactive)
REMARK    1  A    between atoms: O_1  and  C_2
REMARK    2  A    between atoms: C_3  and  O_5
REMARK                            x       y       z     vdW  Elec       q    Type
REMARK                         _______ _______ _______ _____ _____    ______ ____
ROOT
ATOM      1  C   UNL     1      14.615  13.056  44.603  0.00  0.00    +0.000 A 
ATOM      2  C   UNL     1      15.023  13.058  43.266  0.00  0.00    +0.000 A 
ATOM      3  C   UNL     1      15.378  13.718  45.564  0.00  0.00    +0.000 A 
ATOM      4  C   UNL     1      16.206  13.699  42.900  0.00  0.00    +0.000 A 
ATOM      5  C   UNL     1      16.556  14.366  45.195  0.00  0.00    +0.000 A 
ATOM      6  C   UNL     1      16.972  14.352  43.865  0.00  0.00    +0.000 A 
ENDROOT
BRANCH   1   7
ATOM      7  O   UNL     1      13.491  12.382  44.985  0.00  0.00    +0.000 OA
ATOM      8  H   UNL     1      13.269  11.719  44.305  0.00  0.00    +0.000 HD
ENDBRANCH   1   7
BRANCH   2   9
ATOM      9  O   UNL     1      14.255  12.464  42.306  0.00  0.00    +0.000 OA
ATOM     10  H   UNL     1      14.352  11.497  42.374  0.00  0.00    +0.000 HD
ENDBRANCH   2   9
TORSDOF 2
ENDMDL
MODEL 16
REMARK VINA RESULT:    -3.378      3.016      3.706
REMARK INTER + INTRA:          -3.575
REMARK INTER:                  -3.575
REMARK INTRA:                   0.000
REMARK UNBOUND:                 0.000
REMARK  Name = opt01.pdb
REMARK  2 active torsions:
REMARK  status: ('A' for Active; 'I' for Inactive)
REMARK    1  A    between atoms: O_1  and  C_2
REMARK    2  A    between atoms: C_3  and  O_5
REMARK                            x       y       z     vdW  Elec       q    Type
REMARK                         _______ _______ _______ _____ _____    ______ ____
ROOT
ATOM      1  C   UNL     1      10.277  12.523  42.093  0.00  0.00    +0.000 A 
ATOM      2  C   UNL     1      11.415  12.042  41.439  0.00  0.00    +0.000 A 
ATOM      3  C   UNL     1      10.410  13.263  43.267  0.00  0.00    +0.000 A 
ATOM      4  C   UNL     1      12.679  12.279  41.978  0.00  0.00    +0.000 A 
ATOM      5  C   UNL     1      11.675  13.507  43.799  0.00  0.00    +0.000 A 
ATOM      6  C   UNL     1      12.809  13.011  43.157  0.00  0.00    +0.000 A 
ENDROOT
BRANCH   1   7
ATOM      7  O   UNL     1       9.030  12.248  41.609  0.00  0.00    +0.000 OA
ATOM      8  H   UNL     1       9.112  11.675  40.825  0.00  0.00    +0.000 HD
ENDBRANCH   1   7
BRANCH   2   9
ATOM      9  O   UNL     1      11.303  11.368  40.257  0.00  0.00    +0.000 OA
ATOM     10  H   UNL     1      10.960  11.974  39.576  0.00  0.00    +0.000 HD
ENDBRANCH   2   9
TORSDOF 2
ENDMDL
MODEL 17
REMARK VINA RESULT:    -3.348      2.889      4.108
REMARK INTER + INTRA:          -3.544
REMARK INTER:                  -3.544
REMARK INTRA:                   0.000
REMARK UNBOUND:                 0.000
REMARK  Name = opt01.pdb
REMARK  2 active torsions:
REMARK  status: ('A' for Active; 'I' for Inactive)
REMARK    1  A    between atoms: O_1  and  C_2
REMARK    2  A    between atoms: C_3  and  O_5
REMARK                            x       y       z     vdW  Elec       q    Type
REMARK                         _______ _______ _______ _____ _____    ______ ____
ROOT
ATOM      1  C   UNL     1      11.424  12.122  41.666  0.00  0.00    +0.000 A 
ATOM      2  C   UNL     1      10.216  12.513  42.251  0.00  0.00    +0.000 A 
ATOM      3  C   UNL     1      12.629  12.396  42.310  0.00  0.00    +0.000 A 
ATOM      4  C   UNL     1      10.221  13.202  43.463  0.00  0.00    +0.000 A 
ATOM      5  C   UNL     1      12.632  13.076  43.527  0.00  0.00    +0.000 A 
ATOM      6  C   UNL     1      11.429  13.483  44.100  0.00  0.00    +0.000 A 
ENDROOT
BRANCH   1   7
ATOM      7  O   UNL     1      11.437  11.500  40.450  0.00  0.00    +0.000 OA
ATOM      8  H   UNL     1      10.914  10.679  40.506  0.00  0.00    +0.000 HD
ENDBRANCH   1   7
BRANCH   2   9
ATOM      9  O   UNL     1       9.026  12.199  41.661  0.00  0.00    +0.000 OA
ATOM     10  H   UNL     1       9.195  11.635  40.884  0.00  0.00    +0.000 HD
ENDBRANCH   2   9
TORSDOF 2
ENDMDL
MODEL 18
REMARK VINA RESULT:    -3.213      2.048      2.957
REMARK INTER + INTRA:          -3.401
REMARK INTER:                  -3.401
REMARK INTRA:                   0.000
REMARK UNBOUND:                 0.000
REMARK  Name = opt01.pdb
REMARK  2 active torsions:
REMARK  status: ('A' for Active; 'I' for Inactive)
REMARK    1  A    between atoms: O_1  and  C_2
REMARK    2  A    between atoms: C_3  and  O_5
REMARK                            x       y       z     vdW  Elec       q    Type
REMARK                         _______ _______ _______ _____ _____    ______ ____
ROOT
ATOM      1  C   UNL     1      12.641  13.537  44.517  0.00  0.00    +0.000 A 
ATOM      2  C   UNL     1      12.988  14.888  44.598  0.00  0.00    +0.000 A 
ATOM      3  C   UNL     1      13.634  12.560  44.560  0.00  0.00    +0.000 A 
ATOM      4  C   UNL     1      14.329  15.257  44.692  0.00  0.00    +0.000 A 
ATOM      5  C   UNL     1      14.974  12.930  44.663  0.00  0.00    +0.000 A 
ATOM      6  C   UNL     1      15.322  14.279  44.724  0.00  0.00    +0.000 A 
ENDROOT
BRANCH   1   7
ATOM      7  O   UNL     1      11.336  13.163  44.365  0.00  0.00    +0.000 OA
ATOM      8  H   UNL     1      10.826  13.918  44.020  0.00  0.00    +0.000 HD
ENDBRANCH   1   7
BRANCH   2   9
ATOM      9  O   UNL     1      12.022  15.852  44.618  0.00  0.00    +0.000 OA
ATOM     10  H   UNL     1      11.310  15.577  45.224  0.00  0.00    +0.000 HD
ENDBRANCH   2   9
TORSDOF 2
ENDMDL
MODEL 19
REMARK VINA RESULT:    -3.164      2.083      3.074
REMARK INTER + INTRA:          -3.349
REMARK INTER:                  -3.349
REMARK INTRA:                   0.000
REMARK UNBOUND:                 0.000
REMARK  Name = opt01.pdb
REMARK  2 active torsions:
REMARK  status: ('A' for Active; 'I' for Inactive)
REMARK    1  A    between atoms: O_1  and  C_2
REMARK    2  A    between atoms: C_3  and  O_5
REMARK                            x       y       z     vdW  Elec       q    Type
REMARK                         _______ _______ _______ _____ _____    ______ ____
ROOT
ATOM      1  C   UNL     1      13.299  14.892  44.619  0.00  0.00    +0.000 A 
ATOM      2  C   UNL     1      12.874  13.561  44.594  0.00  0.00    +0.000 A 
ATOM      3  C   UNL     1      14.662  15.187  44.639  0.00  0.00    +0.000 A 
ATOM      4  C   UNL     1      13.812  12.531  44.619  0.00  0.00    +0.000 A 
ATOM      5  C   UNL     1      15.599  14.155  44.655  0.00  0.00    +0.000 A 
ATOM      6  C   UNL     1      15.174  12.827  44.649  0.00  0.00    +0.000 A 
ENDROOT
BRANCH   1   7
ATOM      7  O   UNL     1      12.391  15.911  44.655  0.00  0.00    +0.000 OA
ATOM      8  H   UNL     1      11.491  15.536  44.666  0.00  0.00    +0.000 HD
ENDBRANCH   1   7
BRANCH   2   9
ATOM      9  O   UNL     1      11.545  13.260  44.513  0.00  0.00    +0.000 OA
ATOM     10  H   UNL     1      11.210  13.056  45.405  0.00  0.00    +0.000 HD
ENDBRANCH   2   9
TORSDOF 2
ENDMDL
