
##########                                Name:                   4
##########                DOCK_Rotatable_Bonds:                   2
##########                         Heavy_Atoms:                   8
##########                    Molecular_Weight:             110.112
##########                       Formal_Charge:        -2.98023e-08
##########                     HBond_Acceptors:                   2
##########                        HBond_Donors:                   2
##########                    Continuous_Score:          -20.087725
##########               Continuous_vdw_energy:          -17.898739
##########                Continuous_es_energy:           -2.188987
##########           Internal_energy_repulsive:            0.079667

@<TRIPOS>MOLECULE
4
 14 14 1 0 0
SMALL
GASTEIGER


@<TRIPOS>ATOM
      1 O          21.9998    6.8672   39.6161 O.3     1  UNL1       -0.5033
      2 C          22.3721    8.0792   40.1208 C.ar    1  UNL1        0.1582
      3 C          22.0999    8.4089   41.4519 C.ar    1  UNL1        0.1582
      4 C          22.9982    9.0068   39.2890 C.ar    1  UNL1       -0.0165
      5 O          21.5423    7.4909   42.2936 O.3     1  UNL1       -0.5033
      6 C          22.4313    9.6736   41.9366 C.ar    1  UNL1       -0.0165
      7 C          23.3369   10.2674   39.7785 C.ar    1  UNL1       -0.0581
      8 C          23.0487   10.6026   41.1004 C.ar    1  UNL1       -0.0581
      9 H          21.6294    6.3220   40.3343 H       1  UNL1        0.2923
     10 H          23.2118    8.7524   38.2535 H       1  UNL1        0.0655
     11 H          21.3834    6.6633   41.8036 H       1  UNL1        0.2923
     12 H          22.2198    9.9327   42.9714 H       1  UNL1        0.0655
     13 H          23.8207   10.9907   39.1268 H       1  UNL1        0.0619
     14 H          23.3105   11.5865   41.4819 H       1  UNL1        0.0619
@<TRIPOS>BOND
     1     1     2    1
     2     2     3   ar
     3     2     4   ar
     4     3     5    1
     5     3     6   ar
     6     4     7   ar
     7     6     8   ar
     8     7     8   ar
     9     1     9    1
    10     4    10    1
    11     5    11    1
    12     6    12    1
    13     7    13    1
    14     8    14    1
@<TRIPOS>SUBSTRUCTURE
     1 UNL1        1 TEMP              0 ****  ****    0 ROOT


##########                                Name:                   4
##########                DOCK_Rotatable_Bonds:                   2
##########                         Heavy_Atoms:                   8
##########                    Molecular_Weight:             110.112
##########                       Formal_Charge:        -2.98023e-08
##########                     HBond_Acceptors:                   2
##########                        HBond_Donors:                   2
##########                    Continuous_Score:          -19.844166
##########               Continuous_vdw_energy:          -18.008747
##########                Continuous_es_energy:           -1.835419
##########           Internal_energy_repulsive:            0.079675

@<TRIPOS>MOLECULE
4
 14 14 1 0 0
SMALL
GASTEIGER


@<TRIPOS>ATOM
      1 O          21.5049    7.6110   42.1221 O.3     1  UNL1       -0.5033
      2 C          22.1038    8.4597   41.2372 C.ar    1  UNL1        0.1582
      3 C          22.3903    8.0420   39.9342 C.ar    1  UNL1        0.1582
      4 C          22.4625    9.7423   41.6506 C.ar    1  UNL1       -0.0165
      5 O          21.9923    6.8121   39.4970 O.3     1  UNL1       -0.5033
      6 C          23.0574    8.8994   39.0600 C.ar    1  UNL1       -0.0165
      7 C          23.1210   10.6010   40.7718 C.ar    1  UNL1       -0.0581
      8 C          23.4233   10.1777   39.4787 C.ar    1  UNL1       -0.0581
      9 H          21.3824    6.7417   41.6984 H       1  UNL1        0.2923
     10 H          22.2398   10.0700   42.6633 H       1  UNL1        0.0655
     11 H          21.5511    6.3409   40.2274 H       1  UNL1        0.2923
     12 H          23.2821    8.5763   38.0462 H       1  UNL1        0.0655
     13 H          23.4040   11.5989   41.0979 H       1  UNL1        0.0619
     14 H          23.9391   10.8462   38.7937 H       1  UNL1        0.0619
@<TRIPOS>BOND
     1     1     2    1
     2     2     3   ar
     3     2     4   ar
     4     3     5    1
     5     3     6   ar
     6     4     7   ar
     7     6     8   ar
     8     7     8   ar
     9     1     9    1
    10     4    10    1
    11     5    11    1
    12     6    12    1
    13     7    13    1
    14     8    14    1
@<TRIPOS>SUBSTRUCTURE
     1 UNL1        1 TEMP              0 ****  ****    0 ROOT


##########                                Name:                   4
##########                DOCK_Rotatable_Bonds:                   2
##########                         Heavy_Atoms:                   8
##########                    Molecular_Weight:             110.112
##########                       Formal_Charge:        -2.98023e-08
##########                     HBond_Acceptors:                   2
##########                        HBond_Donors:                   2
##########                    Continuous_Score:          -19.894730
##########               Continuous_vdw_energy:          -18.206245
##########                Continuous_es_energy:           -1.688484
##########           Internal_energy_repulsive:            0.079680

@<TRIPOS>MOLECULE
4
 14 14 1 0 0
SMALL
GASTEIGER


@<TRIPOS>ATOM
      1 O          22.7256   10.1195   42.6922 O.3     1  UNL1       -0.5033
      2 C          22.6684    9.5935   41.4343 C.ar    1  UNL1        0.1582
      3 C          22.1070    8.3319   41.2161 C.ar    1  UNL1        0.1582
      4 C          23.2067   10.3090   40.3653 C.ar    1  UNL1       -0.0165
      5 O          21.5231    7.6460   42.2412 O.3     1  UNL1       -0.5033
      6 C          22.1108    7.7813   39.9351 C.ar    1  UNL1       -0.0165
      7 C          23.2009    9.7604   39.0838 C.ar    1  UNL1       -0.0581
      8 C          22.6580    8.4946   38.8698 C.ar    1  UNL1       -0.0581
      9 H          23.1361   11.0026   42.6511 H       1  UNL1        0.2923
     10 H          23.6431   11.2910   40.5324 H       1  UNL1        0.0655
     11 H          21.1729    6.8018   41.9023 H       1  UNL1        0.2923
     12 H          21.6755    6.7997   39.7631 H       1  UNL1        0.0655
     13 H          23.6256   10.3181   38.2527 H       1  UNL1        0.0619
     14 H          22.6556    8.0653   37.8707 H       1  UNL1        0.0619
@<TRIPOS>BOND
     1     1     2    1
     2     2     3   ar
     3     2     4   ar
     4     3     5    1
     5     3     6   ar
     6     4     7   ar
     7     6     8   ar
     8     7     8   ar
     9     1     9    1
    10     4    10    1
    11     5    11    1
    12     6    12    1
    13     7    13    1
    14     8    14    1
@<TRIPOS>SUBSTRUCTURE
     1 UNL1        1 TEMP              0 ****  ****    0 ROOT


##########                                Name:                   5
##########                DOCK_Rotatable_Bonds:                  12
##########                         Heavy_Atoms:                  35
##########                    Molecular_Weight:             492.393
##########                       Formal_Charge:         -9.9659e-05
##########                     HBond_Acceptors:                  13
##########                        HBond_Donors:                   9
##########                    Continuous_Score:          -46.346027
##########               Continuous_vdw_energy:          -40.791142
##########                Continuous_es_energy:           -5.554886
##########           Internal_energy_repulsive:           25.778275

@<TRIPOS>MOLECULE
5
 55 58 1 0 0
SMALL
GASTEIGER


@<TRIPOS>ATOM
      1 O          12.1865   16.5527   44.0575 O.2     1  UNL1       -0.2865
      2 C          12.6362   15.4282   44.1251 C.2     1  UNL1        0.1984
      3 C          11.6943   14.2536   43.8984 C.ar    1  UNL1        0.0785
      4 C          14.1212   15.2010   44.3500 C.ar    1  UNL1        0.0371
      5 C          10.2945   14.4372   43.8472 C.ar    1  UNL1        0.1378
      6 C          12.2067   12.9623   43.7275 C.ar    1  UNL1        0.0816
      7 C          14.5934   13.8963   44.1665 C.ar    1  UNL1        0.0369
      8 C          15.0479   16.2321   44.7094 C.ar    1  UNL1       -0.0215
      9 O           9.7355   15.6558   44.1440 O.3     1  UNL1       -0.5055
     10 C           9.4129   13.3827   43.5576 C.ar    1  UNL1        0.0708
     11 C          13.6914   12.7415   43.8354 C.2     1  UNL1        0.1984
     12 C          11.3224   11.8978   43.4547 C.ar    1  UNL1        0.1705
     13 C          15.9524   13.6336   44.2816 C.ar    1  UNL1       -0.0078
     14 C          16.4493   15.9635   44.7654 C.ar    1  UNL1        0.1037
     15 C          14.5661   17.6283   45.1393 C.3     1  UNL1       -0.0381
     16 C           9.9463   12.1010   43.3592 C.ar    1  UNL1        0.1684
     17 C           7.9181   13.7483   43.4601 C.3     1  UNL1        0.1194
     18 O          14.1811   11.6383   43.6811 O.2     1  UNL1       -0.2865
     19 O          11.7654   10.6138   43.2850 O.3     1  UNL1       -0.5028
     20 C          16.8633   14.6353   44.5634 C.ar    1  UNL1        0.1318
     21 C          17.5094   17.0540   45.0161 C.2     1  UNL1        0.3406
     22 O           9.1622   11.0072   43.1119 O.3     1  UNL1       -0.5030
     23 O           7.3895   13.1350   42.2535 O.3     1  UNL1       -0.3609
     24 C           6.9118   13.4023   44.5808 C.3     1  UNL1        0.1139
     25 O          18.1673   14.2510   44.6337 O.3     1  UNL1       -0.5059
     26 O          18.1705   17.6002   44.1573 O.2     1  UNL1       -0.2450
     27 O          17.7669   17.3813   46.2612 O.3     1  UNL1       -0.4770
     28 C           6.1835   13.7610   41.7545 C.3     1  UNL1        0.1108
     29 O           7.3734   13.8645   45.8543 O.3     1  UNL1       -0.3862
     30 C           5.5730   14.0931   44.2070 C.3     1  UNL1        0.1121
     31 C           5.0628   13.6128   42.8208 C.3     1  UNL1        0.1117
     32 C           5.8532   13.1173   40.3908 C.3     1  UNL1        0.0729
     33 O           4.5815   13.8256   45.1933 O.3     1  UNL1       -0.3865
     34 O           4.6297   12.2486   42.9078 O.3     1  UNL1       -0.3865
     35 O           6.3429   11.7785   40.3448 O.3     1  UNL1       -0.3924
     36 H           8.7688   15.5450   44.2651 H       1  UNL1        0.2922
     37 H          16.3277   12.6225   44.1353 H       1  UNL1        0.0661
     38 H          13.5398   17.6728   45.4869 H       1  UNL1        0.0278
     39 H          14.7008   18.3497   44.3292 H       1  UNL1        0.0278
     40 H          15.1127   17.9717   46.0177 H       1  UNL1        0.0278
     41 H           7.8700   14.8348   43.3345 H       1  UNL1        0.0676
     42 H          12.2431   10.3299   44.0839 H       1  UNL1        0.2923
     43 H           8.2280   11.2988   42.9714 H       1  UNL1        0.2923
     44 H           6.7718   12.3175   44.6239 H       1  UNL1        0.0649
     45 H          18.7206   14.9028   44.2048 H       1  UNL1        0.2922
     46 H          16.9277   17.2357   46.7948 H       1  UNL1        0.2954
     47 H           6.3908   14.8234   41.5918 H       1  UNL1        0.0646
     48 H           7.9647   13.2059   46.2312 H       1  UNL1        0.2100
     49 H           5.7325   15.1746   44.1641 H       1  UNL1        0.0647
     50 H           4.2093   14.2310   42.5280 H       1  UNL1        0.0647
     51 H           6.2961   13.6983   39.5770 H       1  UNL1        0.0584
     52 H           4.7683   13.1054   40.2557 H       1  UNL1        0.0584
     53 H           3.7423   14.1386   44.8120 H       1  UNL1        0.2100
     54 H           3.9913   12.1824   43.6405 H       1  UNL1        0.2100
     55 H           6.1800   11.4389   39.4470 H       1  UNL1        0.2095
@<TRIPOS>BOND
     1     1     2    2
     2     2     3    1
     3     2     4    1
     4     3     5   ar
     5     3     6   ar
     6     4     7   ar
     7     4     8   ar
     8     5     9    1
     9     5    10   ar
    10     6    11    1
    11     6    12   ar
    12     7    13   ar
    13     8    14   ar
    14     8    15    1
    15    10    16   ar
    16    10    17    1
    17    11    18    2
    18    12    19    1
    19    13    20   ar
    20    14    21    1
    21    16    22    1
    22    17    23    1
    23    17    24    1
    24    20    25    1
    25    21    26    2
    26    21    27    1
    27    23    28    1
    28    24    29    1
    29    24    30    1
    30    28    31    1
    31    28    32    1
    32    30    33    1
    33    31    34    1
    34    32    35    1
    35     7    11    1
    36    12    16   ar
    37    14    20   ar
    38    30    31    1
    39     9    36    1
    40    13    37    1
    41    15    38    1
    42    15    39    1
    43    15    40    1
    44    17    41    1
    45    19    42    1
    46    22    43    1
    47    24    44    1
    48    25    45    1
    49    27    46    1
    50    28    47    1
    51    29    48    1
    52    30    49    1
    53    31    50    1
    54    32    51    1
    55    32    52    1
    56    33    53    1
    57    34    54    1
    58    35    55    1
@<TRIPOS>SUBSTRUCTURE
     1 UNL1        1 TEMP              0 ****  ****    0 ROOT


##########                                Name:                   5
##########                DOCK_Rotatable_Bonds:                  12
##########                         Heavy_Atoms:                  35
##########                    Molecular_Weight:             492.393
##########                       Formal_Charge:         -9.9659e-05
##########                     HBond_Acceptors:                  13
##########                        HBond_Donors:                   9
##########                    Continuous_Score:          -46.282845
##########               Continuous_vdw_energy:          -40.668968
##########                Continuous_es_energy:           -5.613878
##########           Internal_energy_repulsive:           25.841406

@<TRIPOS>MOLECULE
5
 55 58 1 0 0
SMALL
GASTEIGER


@<TRIPOS>ATOM
      1 O          12.0767   16.5519   44.0356 O.2     1  UNL1       -0.2865
      2 C          12.5261   15.4272   44.0994 C.2     1  UNL1        0.1984
      3 C          11.5805   14.2531   43.8859 C.ar    1  UNL1        0.0785
      4 C          14.0135   15.1989   44.3065 C.ar    1  UNL1        0.0371
      5 C          10.1803   14.4380   43.8515 C.ar    1  UNL1        0.1378
      6 C          12.0896   12.9612   43.7107 C.ar    1  UNL1        0.0816
      7 C          14.4823   13.8936   44.1191 C.ar    1  UNL1        0.0369
      8 C          14.9455   16.2297   44.6530 C.ar    1  UNL1       -0.0215
      9 O           9.6261   15.6575   44.1534 O.3     1  UNL1       -0.5055
     10 C           9.2943   13.3839   43.5742 C.ar    1  UNL1        0.0708
     11 C          13.5752   12.7392   43.8008 C.2     1  UNL1        0.1984
     12 C          11.2010   11.8971   43.4502 C.ar    1  UNL1        0.1705
     13 C          15.8424   13.6297   44.2180 C.ar    1  UNL1       -0.0078
     14 C          16.3473   15.9598   44.6924 C.ar    1  UNL1        0.1037
     15 C          14.4704   17.6269   45.0868 C.3     1  UNL1       -0.0381
     16 C           9.8240   12.1015   43.3711 C.ar    1  UNL1        0.1684
     17 C           7.7988   13.7507   43.4945 C.3     1  UNL1        0.1194
     18 O          14.0621   11.6352   43.6420 O.2     1  UNL1       -0.2865
     19 O          11.6408   10.6123   43.2769 O.3     1  UNL1       -0.5028
     20 C          16.7575   14.6309   44.4873 C.ar    1  UNL1        0.1318
     21 C          17.4114   17.0497   44.9284 C.2     1  UNL1        0.3406
     22 O           9.0359   11.0080   43.1350 O.3     1  UNL1       -0.5030
     23 O           7.2517   13.1251   42.3025 O.3     1  UNL1       -0.3609
     24 C           6.8084   13.4186   44.6334 C.3     1  UNL1        0.1139
     25 O          18.0620   14.2456   44.5421 O.3     1  UNL1       -0.5059
     26 O          17.6716   17.9537   44.1618 O.2     1  UNL1       -0.2450
     27 O          18.1412   16.9656   46.0165 O.3     1  UNL1       -0.4770
     28 C           6.0396   13.7474   41.8143 C.3     1  UNL1        0.1108
     29 O           7.2891   13.8941   45.8948 O.3     1  UNL1       -0.3862
     30 C           5.4653   14.1074   44.2717 C.3     1  UNL1        0.1121
     31 C           4.9343   13.6127   42.8984 C.3     1  UNL1        0.1117
     32 C           5.6886   13.0894   40.4626 C.3     1  UNL1        0.0729
     33 O           4.4878   13.8523   45.2751 O.3     1  UNL1       -0.3865
     34 O           4.5006   12.2502   43.0066 O.3     1  UNL1       -0.3865
     35 O           6.2526   11.7815   40.3886 O.3     1  UNL1       -0.3924
     36 H           8.7293   15.7091   43.7604 H       1  UNL1        0.2922
     37 H          16.2149   12.6181   44.0686 H       1  UNL1        0.0661
     38 H          13.4484   17.6728   45.4469 H       1  UNL1        0.0278
     39 H          14.5958   18.3469   44.2740 H       1  UNL1        0.0278
     40 H          15.0279   17.9711   45.9579 H       1  UNL1        0.0278
     41 H           7.7504   14.8358   43.3577 H       1  UNL1        0.0676
     42 H          12.2243   10.3694   44.0168 H       1  UNL1        0.2923
     43 H           8.4370   10.8628   43.9082 H       1  UNL1        0.2923
     44 H           6.6675   12.3346   44.6905 H       1  UNL1        0.0649
     45 H          18.6294   15.0133   44.4814 H       1  UNL1        0.2922
     46 H          18.6434   17.8307   46.1149 H       1  UNL1        0.2954
     47 H           6.2459   14.8076   41.6369 H       1  UNL1        0.0646
     48 H           6.8980   13.3668   46.5982 H       1  UNL1        0.2100
     49 H           5.6257   15.1881   44.2144 H       1  UNL1        0.0647
     50 H           4.0774   14.2290   42.6112 H       1  UNL1        0.0647
     51 H           6.0613   13.6973   39.6337 H       1  UNL1        0.0584
     52 H           4.6012   13.0146   40.3742 H       1  UNL1        0.0584
     53 H           4.5877   12.9115   45.5041 H       1  UNL1        0.2100
     54 H           3.6837   12.2364   43.5370 H       1  UNL1        0.2100
     55 H           5.8516   11.3336   39.6228 H       1  UNL1        0.2095
@<TRIPOS>BOND
     1     1     2    2
     2     2     3    1
     3     2     4    1
     4     3     5   ar
     5     3     6   ar
     6     4     7   ar
     7     4     8   ar
     8     5     9    1
     9     5    10   ar
    10     6    11    1
    11     6    12   ar
    12     7    13   ar
    13     8    14   ar
    14     8    15    1
    15    10    16   ar
    16    10    17    1
    17    11    18    2
    18    12    19    1
    19    13    20   ar
    20    14    21    1
    21    16    22    1
    22    17    23    1
    23    17    24    1
    24    20    25    1
    25    21    26    2
    26    21    27    1
    27    23    28    1
    28    24    29    1
    29    24    30    1
    30    28    31    1
    31    28    32    1
    32    30    33    1
    33    31    34    1
    34    32    35    1
    35     7    11    1
    36    12    16   ar
    37    14    20   ar
    38    30    31    1
    39     9    36    1
    40    13    37    1
    41    15    38    1
    42    15    39    1
    43    15    40    1
    44    17    41    1
    45    19    42    1
    46    22    43    1
    47    24    44    1
    48    25    45    1
    49    27    46    1
    50    28    47    1
    51    29    48    1
    52    30    49    1
    53    31    50    1
    54    32    51    1
    55    32    52    1
    56    33    53    1
    57    34    54    1
    58    35    55    1
@<TRIPOS>SUBSTRUCTURE
     1 UNL1        1 TEMP              0 ****  ****    0 ROOT


##########                                Name:                   5
##########                DOCK_Rotatable_Bonds:                  12
##########                         Heavy_Atoms:                  35
##########                    Molecular_Weight:             492.393
##########                       Formal_Charge:         -9.9659e-05
##########                     HBond_Acceptors:                  13
##########                        HBond_Donors:                   9
##########                    Continuous_Score:          -45.671425
##########               Continuous_vdw_energy:          -40.812740
##########                Continuous_es_energy:           -4.858684
##########           Internal_energy_repulsive:           25.522297

@<TRIPOS>MOLECULE
5
 55 58 1 0 0
SMALL
GASTEIGER


@<TRIPOS>ATOM
      1 O          12.0697   16.6076   44.0241 O.2     1  UNL1       -0.2865
      2 C          12.5296   15.4873   44.0932 C.2     1  UNL1        0.1984
      3 C          11.5946   14.3035   43.8862 C.ar    1  UNL1        0.0785
      4 C          14.0191   15.2737   44.3004 C.ar    1  UNL1        0.0371
      5 C          10.1928   14.4754   43.8517 C.ar    1  UNL1        0.1378
      6 C          12.1154   13.0154   43.7170 C.ar    1  UNL1        0.0816
      7 C          14.4996   13.9717   44.1193 C.ar    1  UNL1        0.0369
      8 C          14.9419   16.3146   44.6412 C.ar    1  UNL1       -0.0215
      9 O           9.6276   15.6913   44.1478 O.3     1  UNL1       -0.5055
     10 C           9.3162   13.4119   43.5803 C.ar    1  UNL1        0.0708
     11 C          13.6031   12.8075   43.8073 C.2     1  UNL1        0.1984
     12 C          11.2365   11.9419   43.4624 C.ar    1  UNL1        0.1705
     13 C          15.8621   13.7208   44.2186 C.ar    1  UNL1       -0.0078
     14 C          16.3459   16.0578   44.6811 C.ar    1  UNL1        0.1037
     15 C          14.4541   17.7096   45.0685 C.3     1  UNL1       -0.0381
     16 C           9.8576   12.1333   43.3832 C.ar    1  UNL1        0.1684
     17 C           7.8174   13.7646   43.4997 C.3     1  UNL1        0.1194
     18 O          14.0999   11.7074   43.6537 O.2     1  UNL1       -0.2865
     19 O          11.6879   10.6605   43.2953 O.3     1  UNL1       -0.5028
     20 C          16.7683   14.7318   44.4823 C.ar    1  UNL1        0.1318
     21 C          17.4002   17.1586   44.9110 C.2     1  UNL1        0.3406
     22 O           9.0794   11.0315   43.1530 O.3     1  UNL1       -0.5030
     23 O           7.2775   13.1356   42.3061 O.3     1  UNL1       -0.3609
     24 C           6.8291   13.4212   44.6370 C.3     1  UNL1        0.1139
     25 O          18.0763   14.3587   44.5383 O.3     1  UNL1       -0.5059
     26 O          17.7593   17.9699   44.0830 O.2     1  UNL1       -0.2450
     27 O          18.0070   17.1900   46.0748 O.3     1  UNL1       -0.4770
     28 C           6.0599   13.7472   41.8176 C.3     1  UNL1        0.1108
     29 O           7.3040   13.8992   45.8998 O.3     1  UNL1       -0.3862
     30 C           5.4799   14.0978   44.2750 C.3     1  UNL1        0.1121
     31 C           4.9549   13.6003   42.9004 C.3     1  UNL1        0.1117
     32 C           5.7164   13.0880   40.4646 C.3     1  UNL1        0.0729
     33 O           4.5039   13.8317   45.2771 O.3     1  UNL1       -0.3865
     34 O           4.5341   12.2336   43.0061 O.3     1  UNL1       -0.3865
     35 O           6.2792   11.7793   40.3957 O.3     1  UNL1       -0.3924
     36 H           8.6516   15.5982   44.1577 H       1  UNL1        0.2922
     37 H          16.2439   12.7119   44.0740 H       1  UNL1        0.0661
     38 H          13.4320   17.7479   45.4289 H       1  UNL1        0.0278
     39 H          14.5724   18.4267   44.2520 H       1  UNL1        0.0278
     40 H          15.0090   18.0632   45.9375 H       1  UNL1        0.0278
     41 H           7.7588   14.8494   43.3645 H       1  UNL1        0.0676
     42 H          12.5017   10.5357   43.8139 H       1  UNL1        0.2923
     43 H           8.1270   11.2759   43.2563 H       1  UNL1        0.2923
     44 H           6.6986   12.3358   44.6923 H       1  UNL1        0.0649
     45 H          18.6348   15.1353   44.5421 H       1  UNL1        0.2922
     46 H          18.7411   17.8742   46.0181 H       1  UNL1        0.2954
     47 H           6.2563   14.8096   41.6422 H       1  UNL1        0.0646
     48 H           6.6604   13.6796   46.5802 H       1  UNL1        0.2100
     49 H           5.6300   15.1800   44.2198 H       1  UNL1        0.0647
     50 H           4.0925   14.2088   42.6135 H       1  UNL1        0.0647
     51 H           6.0953   13.6945   39.6373 H       1  UNL1        0.0584
     52 H           4.6297   13.0147   40.3696 H       1  UNL1        0.0584
     53 H           4.3104   12.8804   45.2076 H       1  UNL1        0.2100
     54 H           4.0941   11.9896   42.1721 H       1  UNL1        0.2100
     55 H           5.9947   11.3833   39.5531 H       1  UNL1        0.2095
@<TRIPOS>BOND
     1     1     2    2
     2     2     3    1
     3     2     4    1
     4     3     5   ar
     5     3     6   ar
     6     4     7   ar
     7     4     8   ar
     8     5     9    1
     9     5    10   ar
    10     6    11    1
    11     6    12   ar
    12     7    13   ar
    13     8    14   ar
    14     8    15    1
    15    10    16   ar
    16    10    17    1
    17    11    18    2
    18    12    19    1
    19    13    20   ar
    20    14    21    1
    21    16    22    1
    22    17    23    1
    23    17    24    1
    24    20    25    1
    25    21    26    2
    26    21    27    1
    27    23    28    1
    28    24    29    1
    29    24    30    1
    30    28    31    1
    31    28    32    1
    32    30    33    1
    33    31    34    1
    34    32    35    1
    35     7    11    1
    36    12    16   ar
    37    14    20   ar
    38    30    31    1
    39     9    36    1
    40    13    37    1
    41    15    38    1
    42    15    39    1
    43    15    40    1
    44    17    41    1
    45    19    42    1
    46    22    43    1
    47    24    44    1
    48    25    45    1
    49    27    46    1
    50    28    47    1
    51    29    48    1
    52    30    49    1
    53    31    50    1
    54    32    51    1
    55    32    52    1
    56    33    53    1
    57    34    54    1
    58    35    55    1
@<TRIPOS>SUBSTRUCTURE
     1 UNL1        1 TEMP              0 ****  ****    0 ROOT


##########                                Name:                   6
##########                DOCK_Rotatable_Bonds:                   0
##########                         Heavy_Atoms:                  11
##########                    Molecular_Weight:             146.145
##########                       Formal_Charge:         7.45058e-09
##########                     HBond_Acceptors:                   2
##########                        HBond_Donors:                   0
##########                    Continuous_Score:          -24.361805
##########               Continuous_vdw_energy:          -24.592833
##########                Continuous_es_energy:            0.231028
##########           Internal_energy_repulsive:            0.291620

@<TRIPOS>MOLECULE
6
 17 18 1 0 0
SMALL
GASTEIGER


@<TRIPOS>ATOM
      1 O          21.0765    7.9076   42.8957 O.2     1  UNL1       -0.2452
      2 C          21.6743    8.3281   41.9272 C.ar    1  UNL1        0.3372
      3 O          21.6433    7.6719   40.7399 O.2     1  UNL1       -0.4222
      4 C          22.4715    9.5655   41.9336 C.ar    1  UNL1        0.0236
      5 C          22.3077    8.0766   39.6000 C.ar    1  UNL1        0.1390
      6 C          23.1479   10.0481   40.7628 C.ar    1  UNL1       -0.0443
      7 C          23.0503    9.3083   39.5923 C.ar    1  UNL1        0.0176
      8 C          22.1875    7.2974   38.3997 C.ar    1  UNL1       -0.0186
      9 C          23.6533    9.7241   38.4055 C.ar    1  UNL1       -0.0511
     10 C          22.8102    7.7574   37.2412 C.ar    1  UNL1       -0.0582
     11 C          23.5320    8.9542   37.2458 C.ar    1  UNL1       -0.0610
     12 H          22.4996   10.0949   42.8803 H       1  UNL1        0.0689
     13 H          23.7123   10.9766   40.7895 H       1  UNL1        0.0627
     14 H          21.6285    6.3647   38.3868 H       1  UNL1        0.0654
     15 H          24.2188   10.6525   38.3756 H       1  UNL1        0.0625
     16 H          22.7331    7.1782   36.3238 H       1  UNL1        0.0619
     17 H          24.0082    9.2934   36.3288 H       1  UNL1        0.0618
@<TRIPOS>BOND
     1     1     2    2
     2     2     3   ar
     3     2     4   ar
     4     3     5   ar
     5     4     6   ar
     6     5     7   ar
     7     5     8   ar
     8     7     9   ar
     9     8    10   ar
    10     9    11   ar
    11     6     7   ar
    12    10    11   ar
    13     4    12    1
    14     6    13    1
    15     8    14    1
    16     9    15    1
    17    10    16    1
    18    11    17    1
@<TRIPOS>SUBSTRUCTURE
     1 UNL1        1 TEMP              0 ****  ****    0 ROOT


##########                                Name:                   6
##########                DOCK_Rotatable_Bonds:                   0
##########                         Heavy_Atoms:                  11
##########                    Molecular_Weight:             146.145
##########                       Formal_Charge:         7.45058e-09
##########                     HBond_Acceptors:                   2
##########                        HBond_Donors:                   0
##########                    Continuous_Score:          -24.296562
##########               Continuous_vdw_energy:          -24.569241
##########                Continuous_es_energy:            0.272678
##########           Internal_energy_repulsive:            0.291635

@<TRIPOS>MOLECULE
6
 17 18 1 0 0
SMALL
GASTEIGER


@<TRIPOS>ATOM
      1 O          21.0635    7.7266   42.8487 O.2     1  UNL1       -0.2452
      2 C          21.6611    8.1915   41.9006 C.ar    1  UNL1        0.3372
      3 O          21.6448    7.5812   40.6890 O.2     1  UNL1       -0.4222
      4 C          22.4427    9.4375   41.9592 C.ar    1  UNL1        0.0236
      5 C          22.3101    8.0375   39.5692 C.ar    1  UNL1        0.1390
      6 C          23.1192    9.9730   40.8118 C.ar    1  UNL1       -0.0443
      7 C          23.0372    9.2777   39.6133 C.ar    1  UNL1        0.0176
      8 C          22.2064    7.3037   38.3392 C.ar    1  UNL1       -0.0186
      9 C          23.6413    9.7463   38.4468 C.ar    1  UNL1       -0.0511
     10 C          22.8294    7.8154   37.2029 C.ar    1  UNL1       -0.0582
     11 C          23.5360    9.0201   37.2576 C.ar    1  UNL1       -0.0610
     12 H          22.4589    9.9304   42.9257 H       1  UNL1        0.0689
     13 H          23.6718   10.9068   40.8774 H       1  UNL1        0.0627
     14 H          21.6591    6.3653   38.2873 H       1  UNL1        0.0654
     15 H          24.1952   10.6820   38.4559 H       1  UNL1        0.0625
     16 H          22.7645    7.2711   36.2635 H       1  UNL1        0.0619
     17 H          24.0126    9.4002   36.3572 H       1  UNL1        0.0618
@<TRIPOS>BOND
     1     1     2    2
     2     2     3   ar
     3     2     4   ar
     4     3     5   ar
     5     4     6   ar
     6     5     7   ar
     7     5     8   ar
     8     7     9   ar
     9     8    10   ar
    10     9    11   ar
    11     6     7   ar
    12    10    11   ar
    13     4    12    1
    14     6    13    1
    15     8    14    1
    16     9    15    1
    17    10    16    1
    18    11    17    1
@<TRIPOS>SUBSTRUCTURE
     1 UNL1        1 TEMP              0 ****  ****    0 ROOT


##########                                Name:                   6
##########                DOCK_Rotatable_Bonds:                   0
##########                         Heavy_Atoms:                  11
##########                    Molecular_Weight:             146.145
##########                       Formal_Charge:         7.45058e-09
##########                     HBond_Acceptors:                   2
##########                        HBond_Donors:                   0
##########                    Continuous_Score:          -24.317837
##########               Continuous_vdw_energy:          -24.561136
##########                Continuous_es_energy:            0.243299
##########           Internal_energy_repulsive:            0.291661

@<TRIPOS>MOLECULE
6
 17 18 1 0 0
SMALL
GASTEIGER


@<TRIPOS>ATOM
      1 O          21.1308    7.8224   42.8860 O.2     1  UNL1       -0.2452
      2 C          21.7276    8.2574   41.9233 C.ar    1  UNL1        0.3372
      3 O          21.6947    7.6193   40.7263 O.2     1  UNL1       -0.4222
      4 C          22.5255    9.4941   41.9474 C.ar    1  UNL1        0.0236
      5 C          22.3580    8.0408   39.5917 C.ar    1  UNL1        0.1390
      6 C          23.2008    9.9941   40.7833 C.ar    1  UNL1       -0.0443
      7 C          23.1012    9.2721   39.6019 C.ar    1  UNL1        0.0176
      8 C          22.2360    7.2800   38.3799 C.ar    1  UNL1       -0.0186
      9 C          23.7030    9.7056   38.4208 C.ar    1  UNL1       -0.0511
     10 C          22.8575    7.7571   37.2279 C.ar    1  UNL1       -0.0582
     11 C          23.5800    8.9534   37.2496 C.ar    1  UNL1       -0.0610
     12 H          22.5550   10.0091   42.9020 H       1  UNL1        0.0689
     13 H          23.7656   10.9217   40.8233 H       1  UNL1        0.0627
     14 H          21.6764    6.3480   38.3536 H       1  UNL1        0.0654
     15 H          24.2690   10.6340   38.4042 H       1  UNL1        0.0625
     16 H          22.7789    7.1919   36.3019 H       1  UNL1        0.0619
     17 H          24.0551    9.3061   36.3373 H       1  UNL1        0.0618
@<TRIPOS>BOND
     1     1     2    2
     2     2     3   ar
     3     2     4   ar
     4     3     5   ar
     5     4     6   ar
     6     5     7   ar
     7     5     8   ar
     8     7     9   ar
     9     8    10   ar
    10     9    11   ar
    11     6     7   ar
    12    10    11   ar
    13     4    12    1
    14     6    13    1
    15     8    14    1
    16     9    15    1
    17    10    16    1
    18    11    17    1
@<TRIPOS>SUBSTRUCTURE
     1 UNL1        1 TEMP              0 ****  ****    0 ROOT


##########                                Name:                   7
##########                DOCK_Rotatable_Bonds:                   2
##########                         Heavy_Atoms:                  13
##########                    Molecular_Weight:             173.171
##########                       Formal_Charge:         7.45058e-09
##########                     HBond_Acceptors:                   3
##########                        HBond_Donors:                   1
##########                    Continuous_Score:          -24.620926
##########               Continuous_vdw_energy:          -23.945051
##########                Continuous_es_energy:           -0.675875
##########           Internal_energy_repulsive:            0.585267

@<TRIPOS>MOLECULE
7
 20 21 1 0 0
SMALL
GASTEIGER


@<TRIPOS>ATOM
      1 O          23.1868   11.7175   43.3734 O.2     1  UNL1       -0.2434
      2 C          22.7998   11.7491   42.2227 C.2     1  UNL1        0.3553
      3 OXT        22.4306   12.8664   41.6535 O.3     1  UNL1       -0.4761
      4 CA         22.7007   10.5365   41.3401 C.ar    1  UNL1        0.1481
      5 N          23.1578   10.6307   40.0651 N.ar    1  UNL1       -0.2401
      6 C          22.1505    9.3526   41.8385 C.ar    1  UNL1       -0.0287
      7 C          23.0803    9.5495   39.2549 C.ar    1  UNL1        0.0719
      8 C          22.0652    8.2388   41.0086 C.ar    1  UNL1       -0.0503
      9 C          22.5359    8.3342   39.6999 C.ar    1  UNL1        0.0004
     10 C          23.5524    9.6348   37.9435 C.ar    1  UNL1       -0.0357
     11 C          22.4668    7.2337   38.8441 C.ar    1  UNL1       -0.0526
     12 C          23.4853    8.5357   37.0897 C.ar    1  UNL1       -0.0597
     13 C          22.9420    7.3350   37.5390 C.ar    1  UNL1       -0.0611
     14 HXT        22.1189   12.6126   40.7638 H       1  UNL1        0.2955
     15 H          21.7895    9.2958   42.8628 H       1  UNL1        0.0641
     16 H          21.6381    7.3110   41.3821 H       1  UNL1        0.0625
     17 H          23.9790   10.5673   37.5804 H       1  UNL1        0.0639
     18 H          22.0437    6.2934   39.1901 H       1  UNL1        0.0624
     19 H          23.8580    8.6164   36.0715 H       1  UNL1        0.0618
     20 H          22.8896    6.4779   36.8720 H       1  UNL1        0.0618
@<TRIPOS>BOND
     1     1     2    2
     2     2     3    1
     3     2     4    1
     4     4     5   ar
     5     4     6   ar
     6     5     7   ar
     7     6     8   ar
     8     7     9   ar
     9     7    10   ar
    10     9    11   ar
    11    10    12   ar
    12    11    13   ar
    13     8     9   ar
    14    12    13   ar
    15     3    14    1
    16     6    15    1
    17     8    16    1
    18    10    17    1
    19    11    18    1
    20    12    19    1
    21    13    20    1
@<TRIPOS>SUBSTRUCTURE
     1 UNL1        1 TEMP              0 ****  ****    0 ROOT


##########                                Name:                   7
##########                DOCK_Rotatable_Bonds:                   2
##########                         Heavy_Atoms:                  13
##########                    Molecular_Weight:             173.171
##########                       Formal_Charge:         7.45058e-09
##########                     HBond_Acceptors:                   3
##########                        HBond_Donors:                   1
##########                    Continuous_Score:          -24.325983
##########               Continuous_vdw_energy:          -23.838972
##########                Continuous_es_energy:           -0.487012
##########           Internal_energy_repulsive:            0.831153

@<TRIPOS>MOLECULE
7
 20 21 1 0 0
SMALL
GASTEIGER


@<TRIPOS>ATOM
      1 O          22.9614   11.8988   43.3931 O.2     1  UNL1       -0.2434
      2 C          22.9910   11.8943   42.1791 C.2     1  UNL1        0.3553
      3 OXT        23.1713   12.9925   41.4933 O.3     1  UNL1       -0.4761
      4 CA         22.8256   10.6564   41.3430 C.ar    1  UNL1        0.1481
      5 N          23.1798   10.7135   40.0335 N.ar    1  UNL1       -0.2401
      6 C          22.3202    9.4873   41.9178 C.ar    1  UNL1       -0.0287
      7 C          23.0413    9.6089   39.2639 C.ar    1  UNL1        0.0719
      8 C          22.1726    8.3495   41.1302 C.ar    1  UNL1       -0.0503
      9 C          22.5376    8.4068   39.7860 C.ar    1  UNL1        0.0004
     10 C          23.4075    9.6561   37.9172 C.ar    1  UNL1       -0.0357
     11 C          22.4040    7.2816   38.9709 C.ar    1  UNL1       -0.0526
     12 C          23.2761    8.5323   37.1039 C.ar    1  UNL1       -0.0597
     13 C          22.7737    7.3449   37.6298 C.ar    1  UNL1       -0.0611
     14 HXT        23.0613   12.7343   40.5581 H       1  UNL1        0.2955
     15 H          22.0419    9.4604   42.9687 H       1  UNL1        0.0641
     16 H          21.7792    7.4328   41.5633 H       1  UNL1        0.0625
     17 H          23.8012   10.5777   37.4943 H       1  UNL1        0.0639
     18 H          22.0125    6.3516   39.3767 H       1  UNL1        0.0624
     19 H          23.5665    8.5834   36.0574 H       1  UNL1        0.0618
     20 H          22.6712    6.4686   36.9944 H       1  UNL1        0.0618
@<TRIPOS>BOND
     1     1     2    2
     2     2     3    1
     3     2     4    1
     4     4     5   ar
     5     4     6   ar
     6     5     7   ar
     7     6     8   ar
     8     7     9   ar
     9     7    10   ar
    10     9    11   ar
    11    10    12   ar
    12    11    13   ar
    13     8     9   ar
    14    12    13   ar
    15     3    14    1
    16     6    15    1
    17     8    16    1
    18    10    17    1
    19    11    18    1
    20    12    19    1
    21    13    20    1
@<TRIPOS>SUBSTRUCTURE
     1 UNL1        1 TEMP              0 ****  ****    0 ROOT


##########                                Name:                   7
##########                DOCK_Rotatable_Bonds:                   2
##########                         Heavy_Atoms:                  13
##########                    Molecular_Weight:             173.171
##########                       Formal_Charge:         7.45058e-09
##########                     HBond_Acceptors:                   3
##########                        HBond_Donors:                   1
##########                    Continuous_Score:          -23.819984
##########               Continuous_vdw_energy:          -24.066959
##########                Continuous_es_energy:            0.246976
##########           Internal_energy_repulsive:            1.880437

@<TRIPOS>MOLECULE
7
 20 21 1 0 0
SMALL
GASTEIGER


@<TRIPOS>ATOM
      1 O          22.9980   10.2364   42.7080 O.2     1  UNL1       -0.2434
      2 C          22.3971    9.3434   42.1457 C.2     1  UNL1        0.3553
      3 OXT        21.4499    8.6705   42.7447 O.3     1  UNL1       -0.4761
      4 CA         22.6668    8.9161   40.7301 C.ar    1  UNL1        0.1481
      5 N          23.6386    9.5636   40.0375 N.ar    1  UNL1       -0.2401
      6 C          21.9265    7.8765   40.1611 C.ar    1  UNL1       -0.0287
      7 C          23.8991    9.1921   38.7626 C.ar    1  UNL1        0.0719
      8 C          22.1879    7.4928   38.8491 C.ar    1  UNL1       -0.0503
      9 C          23.1867    8.1560   38.1379 C.ar    1  UNL1        0.0004
     10 C          24.9002    9.8486   38.0435 C.ar    1  UNL1       -0.0357
     11 C          23.4743    7.7924   36.8213 C.ar    1  UNL1       -0.0526
     12 C          25.1886    9.4843   36.7299 C.ar    1  UNL1       -0.0597
     13 C          24.4756    8.4568   36.1178 C.ar    1  UNL1       -0.0611
     14 HXT        21.1264    8.0323   42.0806 H       1  UNL1        0.2955
     15 H          21.1518    7.3693   40.7313 H       1  UNL1        0.0641
     16 H          21.6188    6.6864   38.3924 H       1  UNL1        0.0625
     17 H          25.4643   10.6531   38.5104 H       1  UNL1        0.0639
     18 H          22.9206    6.9902   36.3387 H       1  UNL1        0.0624
     19 H          25.9718   10.0035   36.1828 H       1  UNL1        0.0618
     20 H          24.7012    8.1734   35.0926 H       1  UNL1        0.0618
@<TRIPOS>BOND
     1     1     2    2
     2     2     3    1
     3     2     4    1
     4     4     5   ar
     5     4     6   ar
     6     5     7   ar
     7     6     8   ar
     8     7     9   ar
     9     7    10   ar
    10     9    11   ar
    11    10    12   ar
    12    11    13   ar
    13     8     9   ar
    14    12    13   ar
    15     3    14    1
    16     6    15    1
    17     8    16    1
    18    10    17    1
    19    11    18    1
    20    12    19    1
    21    13    20    1
@<TRIPOS>SUBSTRUCTURE
     1 UNL1        1 TEMP              0 ****  ****    0 ROOT


##########                                Name:                   8
##########                DOCK_Rotatable_Bonds:                   4
##########                         Heavy_Atoms:                  11
##########                    Molecular_Weight:             148.161
##########                       Formal_Charge:         0.000199907
##########                     HBond_Acceptors:                   2
##########                        HBond_Donors:                   1
##########                    Continuous_Score:          -22.843809
##########               Continuous_vdw_energy:          -21.515398
##########                Continuous_es_energy:           -1.328411
##########           Internal_energy_repulsive:            3.195112

@<TRIPOS>MOLECULE
8
 19 19 1 0 0
SMALL
GASTEIGER


@<TRIPOS>ATOM
      1 O          22.1290    9.5740   42.8273 O.2     1  UNL1       -0.2458
      2 C          21.7861    8.5859   42.2129 C.2     1  UNL1        0.3296
      3 O          21.0458    7.6552   42.7553 O.3     1  UNL1       -0.4775
      4 C          22.1877    8.3492   40.8060 C.2     1  UNL1        0.0229
      5 C          22.8161    9.1883   39.9659 C.2     1  UNL1       -0.0478
      6 C          23.2068    8.9301   38.5659 C.ar    1  UNL1       -0.0248
      7 C          23.9302    9.8837   37.8463 C.ar    1  UNL1       -0.0546
      8 C          22.8695    7.7191   37.9578 C.ar    1  UNL1       -0.0546
      9 C          24.3090    9.6303   36.5294 C.ar    1  UNL1       -0.0612
     10 C          23.2533    7.4639   36.6421 C.ar    1  UNL1       -0.0612
     11 C          23.9727    8.4201   35.9273 C.ar    1  UNL1       -0.0617
     12 H          20.8814    6.9800   42.0768 H       1  UNL1        0.2954
     13 H          21.9296    7.3671   40.4102 H       1  UNL1        0.0689
     14 H          23.0788   10.1831   40.3216 H       1  UNL1        0.0626
     15 H          24.2027   10.8289   38.3099 H       1  UNL1        0.0623
     16 H          22.3103    6.9670   38.5097 H       1  UNL1        0.0623
     17 H          24.8710   10.3767   35.9726 H       1  UNL1        0.0618
     18 H          22.9935    6.5178   36.1736 H       1  UNL1        0.0618
     19 H          24.2724    8.2205   34.9016 H       1  UNL1        0.0618
@<TRIPOS>BOND
     1     1     2    2
     2     2     3    1
     3     2     4    1
     4     4     5    2
     5     5     6    1
     6     6     7   ar
     7     6     8   ar
     8     7     9   ar
     9     8    10   ar
    10     9    11   ar
    11    10    11   ar
    12     3    12    1
    13     4    13    1
    14     5    14    1
    15     7    15    1
    16     8    16    1
    17     9    17    1
    18    10    18    1
    19    11    19    1
@<TRIPOS>SUBSTRUCTURE
     1 UNL1        1 TEMP              0 ****  ****    0 ROOT


##########                                Name:                   8
##########                DOCK_Rotatable_Bonds:                   4
##########                         Heavy_Atoms:                  11
##########                    Molecular_Weight:             148.161
##########                       Formal_Charge:         0.000199907
##########                     HBond_Acceptors:                   2
##########                        HBond_Donors:                   1
##########                    Continuous_Score:          -22.520582
##########               Continuous_vdw_energy:          -21.364214
##########                Continuous_es_energy:           -1.156369
##########           Internal_energy_repulsive:            3.192827

@<TRIPOS>MOLECULE
8
 19 19 1 0 0
SMALL
GASTEIGER


@<TRIPOS>ATOM
      1 O          22.3222    9.5931   42.8794 O.2     1  UNL1       -0.2458
      2 C          21.8580    8.6483   42.2766 C.2     1  UNL1        0.3296
      3 O          21.0480    7.7944   42.8452 O.3     1  UNL1       -0.4775
      4 C          22.1802    8.3800   40.8552 C.2     1  UNL1        0.0229
      5 C          22.7110    9.2170   39.9482 C.2     1  UNL1       -0.0478
      6 C          23.0239    8.9271   38.5350 C.ar    1  UNL1       -0.0248
      7 C          23.6247    9.8975   37.7303 C.ar    1  UNL1       -0.0546
      8 C          22.7364    7.6701   37.9988 C.ar    1  UNL1       -0.0546
      9 C          23.9312    9.6152   36.4004 C.ar    1  UNL1       -0.0612
     10 C          23.0479    7.3864   36.6700 C.ar    1  UNL1       -0.0612
     11 C          23.6450    8.3593   35.8702 C.ar    1  UNL1       -0.0617
     12 H          20.7776    7.1527   42.1681 H       1  UNL1        0.2954
     13 H          21.9467    7.3731   40.5100 H       1  UNL1        0.0689
     14 H          22.9459   10.2356   40.2528 H       1  UNL1        0.0626
     15 H          23.8578   10.8788   38.1372 H       1  UNL1        0.0623
     16 H          22.2728    6.9049   38.6171 H       1  UNL1        0.0623
     17 H          24.3978   10.3748   35.7774 H       1  UNL1        0.0618
     18 H          22.8274    6.4049   36.2574 H       1  UNL1        0.0618
     19 H          23.8885    8.1375   34.8342 H       1  UNL1        0.0618
@<TRIPOS>BOND
     1     1     2    2
     2     2     3    1
     3     2     4    1
     4     4     5    2
     5     5     6    1
     6     6     7   ar
     7     6     8   ar
     8     7     9   ar
     9     8    10   ar
    10     9    11   ar
    11    10    11   ar
    12     3    12    1
    13     4    13    1
    14     5    14    1
    15     7    15    1
    16     8    16    1
    17     9    17    1
    18    10    18    1
    19    11    19    1
@<TRIPOS>SUBSTRUCTURE
     1 UNL1        1 TEMP              0 ****  ****    0 ROOT


##########                                Name:                   8
##########                DOCK_Rotatable_Bonds:                   4
##########                         Heavy_Atoms:                  11
##########                    Molecular_Weight:             148.161
##########                       Formal_Charge:         0.000199907
##########                     HBond_Acceptors:                   2
##########                        HBond_Donors:                   1
##########                    Continuous_Score:          -22.582161
##########               Continuous_vdw_energy:          -20.506418
##########                Continuous_es_energy:           -2.075742
##########           Internal_energy_repulsive:            3.007282

@<TRIPOS>MOLECULE
8
 19 19 1 0 0
SMALL
GASTEIGER


@<TRIPOS>ATOM
      1 O          21.9661    9.4660   42.8412 O.2     1  UNL1       -0.2458
      2 C          21.7504    8.4189   42.2680 C.2     1  UNL1        0.3296
      3 O          21.0717    7.4512   42.8257 O.3     1  UNL1       -0.4775
      4 C          22.2479    8.1488   40.8983 C.2     1  UNL1        0.0229
      5 C          23.0599    8.9059   40.1419 C.2     1  UNL1       -0.0478
      6 C          23.5431    8.6159   38.7774 C.ar    1  UNL1       -0.0248
      7 C          23.0918    7.4854   38.0928 C.ar    1  UNL1       -0.0546
      8 C          24.4431    9.4836   38.1551 C.ar    1  UNL1       -0.0546
      9 C          23.5396    7.2227   36.7994 C.ar    1  UNL1       -0.0612
     10 C          24.8867    9.2233   36.8595 C.ar    1  UNL1       -0.0612
     11 C          24.4355    8.0923   36.1815 C.ar    1  UNL1       -0.0617
     12 H          21.1132    6.6845   42.2308 H       1  UNL1        0.2954
     13 H          21.8988    7.2166   40.4548 H       1  UNL1        0.0689
     14 H          23.4191    9.8508   40.5462 H       1  UNL1        0.0626
     15 H          22.3875    6.8043   38.5646 H       1  UNL1        0.0623
     16 H          24.7980   10.3696   38.6766 H       1  UNL1        0.0623
     17 H          23.1863    6.3402   36.2709 H       1  UNL1        0.0618
     18 H          25.5834    9.9040   36.3762 H       1  UNL1        0.0618
     19 H          24.7811    7.8899   35.1708 H       1  UNL1        0.0618
@<TRIPOS>BOND
     1     1     2    2
     2     2     3    1
     3     2     4    1
     4     4     5    2
     5     5     6    1
     6     6     7   ar
     7     6     8   ar
     8     7     9   ar
     9     8    10   ar
    10     9    11   ar
    11    10    11   ar
    12     3    12    1
    13     4    13    1
    14     5    14    1
    15     7    15    1
    16     8    16    1
    17     9    17    1
    18    10    18    1
    19    11    19    1
@<TRIPOS>SUBSTRUCTURE
     1 UNL1        1 TEMP              0 ****  ****    0 ROOT


##########                                Name:                   9
##########                DOCK_Rotatable_Bonds:                  12
##########                         Heavy_Atoms:                  25
##########                    Molecular_Weight:             354.313
##########                       Formal_Charge:        -9.95398e-05
##########                     HBond_Acceptors:                   9
##########                        HBond_Donors:                   6
##########                    Continuous_Score:          -39.681858
##########               Continuous_vdw_energy:          -35.941170
##########                Continuous_es_energy:           -3.740688
##########           Internal_energy_repulsive:            6.008593

@<TRIPOS>MOLECULE
9
 43 44 1 0 0
SMALL
GASTEIGER


@<TRIPOS>ATOM
      1 O          10.1835   16.6366   43.1600 O.2     1  UNL1       -0.2456
      2 C           9.9988   15.5246   43.6124 C.2     1  UNL1        0.3323
      3 O          10.9725   14.6136   43.8486 O.3     1  UNL1       -0.4555
      4 C           8.6549   15.0309   43.9949 C.2     1  UNL1        0.0231
      5 C          11.8178   14.1573   42.7571 C.3     1  UNL1        0.1346
      6 C           8.3337   13.8398   44.5267 C.2     1  UNL1       -0.0477
      7 C          11.4051   12.7245   42.3262 C.3     1  UNL1        0.1180
      8 C          13.3017   14.2276   43.2011 C.3     1  UNL1        0.0264
      9 C           6.9949   13.3415   44.9104 C.ar    1  UNL1       -0.0211
     10 O          11.9834   12.4112   41.0511 O.3     1  UNL1       -0.3856
     11 C          11.8091   11.6642   43.3821 C.3     1  UNL1        0.0877
     12 C          13.6978   13.1489   44.2511 C.3     1  UNL1        0.1677
     13 C           6.2766   13.9418   45.9491 C.ar    1  UNL1       -0.0094
     14 C           6.4268   12.2767   44.2062 C.ar    1  UNL1       -0.0509
     15 O          11.5125   10.3626   42.8738 O.3     1  UNL1       -0.3890
     16 C          13.3123   11.7414   43.7380 C.3     1  UNL1        0.0153
     17 O          13.0070   13.4050   45.4855 O.3     1  UNL1       -0.3772
     18 C          15.2014   13.1997   44.5180 C.2     1  UNL1        0.3370
     19 C           5.0014   13.4790   46.2776 C.ar    1  UNL1        0.1588
     20 C           5.1508   11.8183   44.5303 C.ar    1  UNL1       -0.0160
     21 O          16.0423   13.0772   43.6510 O.2     1  UNL1       -0.2478
     22 O          15.5185   13.2576   45.7864 O.3     1  UNL1       -0.4786
     23 O           4.2817   14.0495   47.2896 O.3     1  UNL1       -0.5033
     24 C           4.4398   12.4228   45.5639 C.ar    1  UNL1        0.1582
     25 O           3.1881   12.0064   45.8927 O.3     1  UNL1       -0.5033
     26 H           7.8349   15.7229   43.8070 H       1  UNL1        0.0689
     27 H          11.6811   14.8435   41.9153 H       1  UNL1        0.0762
     28 H           9.1377   13.1258   44.7021 H       1  UNL1        0.0626
     29 H          10.3181   12.6906   42.2106 H       1  UNL1        0.0656
     30 H          13.5138   15.2234   43.5984 H       1  UNL1        0.0335
     31 H          13.9248   14.1111   42.3109 H       1  UNL1        0.0335
     32 H          12.8891   12.0777   41.1728 H       1  UNL1        0.2100
     33 H          11.2223   11.8276   44.2909 H       1  UNL1        0.0621
     34 H           6.7077   14.7741   46.4996 H       1  UNL1        0.0661
     35 H           6.9744   11.8059   43.3933 H       1  UNL1        0.0625
     36 H          10.9533    9.9171   43.5373 H       1  UNL1        0.2099
     37 H          13.9149   11.4932   42.8600 H       1  UNL1        0.0324
     38 H          13.5437   10.9963   44.5039 H       1  UNL1        0.0324
     39 H          13.1604   12.6315   46.0569 H       1  UNL1        0.2109
     40 H           4.7089   10.9952   43.9732 H       1  UNL1        0.0655
     41 H          15.7330   12.3402   46.0542 H       1  UNL1        0.2951
     42 H           3.3410   13.8287   47.1988 H       1  UNL1        0.2923
     43 H           2.8241   11.5902   45.0817 H       1  UNL1        0.2923
@<TRIPOS>BOND
     1     1     2    2
     2     2     3    1
     3     2     4    1
     4     3     5    1
     5     4     6    2
     6     5     7    1
     7     5     8    1
     8     6     9    1
     9     7    10    1
    10     7    11    1
    11     8    12    1
    12     9    13   ar
    13     9    14   ar
    14    11    15    1
    15    11    16    1
    16    12    17    1
    17    12    18    1
    18    13    19   ar
    19    14    20   ar
    20    18    21    2
    21    18    22    1
    22    19    23    1
    23    19    24   ar
    24    24    25    1
    25    12    16    1
    26    20    24   ar
    27     4    26    1
    28     5    27    1
    29     6    28    1
    30     7    29    1
    31     8    30    1
    32     8    31    1
    33    10    32    1
    34    11    33    1
    35    13    34    1
    36    14    35    1
    37    15    36    1
    38    16    37    1
    39    16    38    1
    40    17    39    1
    41    20    40    1
    42    22    41    1
    43    23    42    1
    44    25    43    1
@<TRIPOS>SUBSTRUCTURE
     1 UNL1        1 TEMP              0 ****  ****    0 ROOT


##########                                Name:                   9
##########                DOCK_Rotatable_Bonds:                  12
##########                         Heavy_Atoms:                  25
##########                    Molecular_Weight:             354.313
##########                       Formal_Charge:        -9.95398e-05
##########                     HBond_Acceptors:                   9
##########                        HBond_Donors:                   6
##########                    Continuous_Score:          -41.536182
##########               Continuous_vdw_energy:          -35.836796
##########                Continuous_es_energy:           -5.699386
##########           Internal_energy_repulsive:            6.348254

@<TRIPOS>MOLECULE
9
 43 44 1 0 0
SMALL
GASTEIGER


@<TRIPOS>ATOM
      1 O          10.7598   16.6152   42.0831 O.2     1  UNL1       -0.2456
      2 C          10.4076   15.8646   42.9707 C.2     1  UNL1        0.3323
      3 O          11.0519   14.7271   43.3235 O.3     1  UNL1       -0.4555
      4 C           9.2162   16.1263   43.8124 C.2     1  UNL1        0.0231
      5 C          11.9243   14.0628   42.3685 C.3     1  UNL1        0.1346
      6 C           8.0266   15.5033   43.7755 C.2     1  UNL1       -0.0477
      7 C          11.4608   12.5975   42.1527 C.3     1  UNL1        0.1180
      8 C          13.3870   14.1426   42.8768 C.3     1  UNL1        0.0264
      9 C           7.6005   14.3991   42.8884 C.ar    1  UNL1       -0.0211
     10 O          12.0829   12.0552   40.9788 O.3     1  UNL1       -0.3856
     11 C          11.7599   11.7085   43.3866 C.3     1  UNL1        0.0877
     12 C          13.6774   13.2348   44.1074 C.3     1  UNL1        0.1677
     13 C           7.5174   13.0872   43.3651 C.ar    1  UNL1       -0.0094
     14 C           7.2465   14.6743   41.5650 C.ar    1  UNL1       -0.0509
     15 O          11.4225   10.3549   43.0795 O.3     1  UNL1       -0.3890
     16 C          13.2463   11.7797   43.8079 C.3     1  UNL1        0.0153
     17 O          12.9423   13.7187   45.2442 O.3     1  UNL1       -0.3772
     18 C          15.1672   13.2655   44.4456 C.2     1  UNL1        0.3370
     19 C           7.0832   12.0622   42.5231 C.ar    1  UNL1        0.1588
     20 C           6.8072   13.6517   40.7257 C.ar    1  UNL1       -0.0160
     21 O          16.0451   13.0576   43.6331 O.2     1  UNL1       -0.2478
     22 O          15.4242   13.4081   45.7209 O.3     1  UNL1       -0.4786
     23 O           6.9955   10.7726   42.9670 O.3     1  UNL1       -0.5033
     24 C           6.7241   12.3479   41.2079 C.ar    1  UNL1        0.1582
     25 O           6.2855   11.3329   40.4168 O.3     1  UNL1       -0.5033
     26 H           9.3275   16.9314   44.5377 H       1  UNL1        0.0689
     27 H          11.8627   14.6069   41.4207 H       1  UNL1        0.0762
     28 H           7.2607   15.8238   44.4810 H       1  UNL1        0.0626
     29 H          10.3804   12.5907   41.9840 H       1  UNL1        0.0656
     30 H          13.6298   15.1802   43.1191 H       1  UNL1        0.0335
     31 H          14.0452   13.8555   42.0529 H       1  UNL1        0.0335
     32 H          12.9700   12.4389   40.8686 H       1  UNL1        0.2100
     33 H          11.1394   12.0432   44.2232 H       1  UNL1        0.0621
     34 H           7.7856   12.8636   44.3945 H       1  UNL1        0.0661
     35 H           7.3023   15.6917   41.1854 H       1  UNL1        0.0625
     36 H          12.1264    9.7928   43.4537 H       1  UNL1        0.2099
     37 H          13.8768   11.3660   43.0163 H       1  UNL1        0.0324
     38 H          13.4029   11.1613   44.6958 H       1  UNL1        0.0324
     39 H          12.8278   12.9613   45.8454 H       1  UNL1        0.2109
     40 H           6.5240   13.8722   39.6990 H       1  UNL1        0.0655
     41 H          14.6310   13.8294   46.1117 H       1  UNL1        0.2951
     42 H           7.2340   10.7239   43.9066 H       1  UNL1        0.2923
     43 H           6.0914   11.7396   39.5447 H       1  UNL1        0.2923
@<TRIPOS>BOND
     1     1     2    2
     2     2     3    1
     3     2     4    1
     4     3     5    1
     5     4     6    2
     6     5     7    1
     7     5     8    1
     8     6     9    1
     9     7    10    1
    10     7    11    1
    11     8    12    1
    12     9    13   ar
    13     9    14   ar
    14    11    15    1
    15    11    16    1
    16    12    17    1
    17    12    18    1
    18    13    19   ar
    19    14    20   ar
    20    18    21    2
    21    18    22    1
    22    19    23    1
    23    19    24   ar
    24    24    25    1
    25    12    16    1
    26    20    24   ar
    27     4    26    1
    28     5    27    1
    29     6    28    1
    30     7    29    1
    31     8    30    1
    32     8    31    1
    33    10    32    1
    34    11    33    1
    35    13    34    1
    36    14    35    1
    37    15    36    1
    38    16    37    1
    39    16    38    1
    40    17    39    1
    41    20    40    1
    42    22    41    1
    43    23    42    1
    44    25    43    1
@<TRIPOS>SUBSTRUCTURE
     1 UNL1        1 TEMP              0 ****  ****    0 ROOT


##########                                Name:                   9
##########                DOCK_Rotatable_Bonds:                  12
##########                         Heavy_Atoms:                  25
##########                    Molecular_Weight:             354.313
##########                       Formal_Charge:        -9.95398e-05
##########                     HBond_Acceptors:                   9
##########                        HBond_Donors:                   6
##########                    Continuous_Score:          -40.365013
##########               Continuous_vdw_energy:          -35.227554
##########                Continuous_es_energy:           -5.137458
##########           Internal_energy_repulsive:            7.734582

@<TRIPOS>MOLECULE
9
 43 44 1 0 0
SMALL
GASTEIGER


@<TRIPOS>ATOM
      1 O          10.9111   12.8451   41.3522 O.2     1  UNL1       -0.2456
      2 C          10.3269   12.0970   42.1102 C.2     1  UNL1        0.3323
      3 O           8.9887   12.0947   42.3168 O.3     1  UNL1       -0.4555
      4 C          11.0246   11.0533   42.8979 C.2     1  UNL1        0.0231
      5 C           8.3294   13.2938   42.8084 C.3     1  UNL1        0.1346
      6 C          12.1780   11.1651   43.5771 C.2     1  UNL1       -0.0477
      7 C           7.4621   12.9545   44.0499 C.3     1  UNL1        0.1180
      8 C           7.4898   13.9169   41.6634 C.3     1  UNL1        0.0264
      9 C          13.0465   12.3545   43.7140 C.ar    1  UNL1       -0.0211
     10 O           7.0981   14.1603   44.7371 O.3     1  UNL1       -0.3856
     11 C           6.1977   12.1434   43.6677 C.3     1  UNL1        0.0877
     12 C           6.2159   13.1002   41.2990 C.3     1  UNL1        0.1677
     13 C          12.5400   13.5593   44.2110 C.ar    1  UNL1       -0.0094
     14 C          14.3982   12.2653   43.3711 C.ar    1  UNL1       -0.0509
     15 O           5.3858   11.9695   44.8301 O.3     1  UNL1       -0.3890
     16 C           5.3677   12.8449   42.5671 C.3     1  UNL1        0.0153
     17 O           6.6024   11.8379   40.7297 O.3     1  UNL1       -0.3772
     18 C           5.3790   13.8593   40.2704 C.2     1  UNL1        0.3370
     19 C          13.3808   14.6631   44.3629 C.ar    1  UNL1        0.1588
     20 C          15.2394   13.3658   43.5285 C.ar    1  UNL1       -0.0160
     21 O           4.2597   13.5272   39.9381 O.2     1  UNL1       -0.2478
     22 O           6.0180   14.8330   39.6734 O.3     1  UNL1       -0.4786
     23 O          12.9074   15.8508   44.8455 O.3     1  UNL1       -0.5033
     24 C          14.7288   14.5617   44.0269 C.ar    1  UNL1        0.1582
     25 O          15.5283   15.6469   44.2046 O.3     1  UNL1       -0.5033
     26 H          10.5385   10.0785   42.9107 H       1  UNL1        0.0689
     27 H           9.1050   14.0124   43.0922 H       1  UNL1        0.0762
     28 H          12.5423   10.2885   44.1119 H       1  UNL1        0.0626
     29 H           8.0565   12.3500   44.7407 H       1  UNL1        0.0656
     30 H           8.1180   14.0346   40.7768 H       1  UNL1        0.0335
     31 H           7.1975   14.9241   41.9708 H       1  UNL1        0.0335
     32 H           6.1772   14.3939   44.5279 H       1  UNL1        0.2100
     33 H           6.5051   11.1583   43.3042 H       1  UNL1        0.0621
     34 H          11.4911   13.6375   44.4852 H       1  UNL1        0.0661
     35 H          14.8039   11.3318   42.9887 H       1  UNL1        0.0625
     36 H           4.7297   12.6913   44.8310 H       1  UNL1        0.2099
     37 H           4.9774   13.7939   42.9445 H       1  UNL1        0.0324
     38 H           4.5043   12.2246   42.3116 H       1  UNL1        0.0324
     39 H           5.7856   11.4132   40.4122 H       1  UNL1        0.2109
     40 H          16.2929   13.2888   43.2691 H       1  UNL1        0.0655
     41 H           5.6855   14.8506   38.7523 H       1  UNL1        0.2951
     42 H          11.9377   15.8666   44.8064 H       1  UNL1        0.2923
     43 H          16.4449   15.3303   44.0526 H       1  UNL1        0.2923
@<TRIPOS>BOND
     1     1     2    2
     2     2     3    1
     3     2     4    1
     4     3     5    1
     5     4     6    2
     6     5     7    1
     7     5     8    1
     8     6     9    1
     9     7    10    1
    10     7    11    1
    11     8    12    1
    12     9    13   ar
    13     9    14   ar
    14    11    15    1
    15    11    16    1
    16    12    17    1
    17    12    18    1
    18    13    19   ar
    19    14    20   ar
    20    18    21    2
    21    18    22    1
    22    19    23    1
    23    19    24   ar
    24    24    25    1
    25    12    16    1
    26    20    24   ar
    27     4    26    1
    28     5    27    1
    29     6    28    1
    30     7    29    1
    31     8    30    1
    32     8    31    1
    33    10    32    1
    34    11    33    1
    35    13    34    1
    36    14    35    1
    37    15    36    1
    38    16    37    1
    39    16    38    1
    40    17    39    1
    41    20    40    1
    42    22    41    1
    43    23    42    1
    44    25    43    1
@<TRIPOS>SUBSTRUCTURE
     1 UNL1        1 TEMP              0 ****  ****    0 ROOT


##########                                Name:                  12
##########                DOCK_Rotatable_Bonds:                   0
##########                         Heavy_Atoms:                  14
##########                    Molecular_Weight:             194.193
##########                       Formal_Charge:        -2.23517e-08
##########                     HBond_Acceptors:                   6
##########                        HBond_Donors:                   0
##########                    Continuous_Score:          -28.913847
##########               Continuous_vdw_energy:          -28.762383
##########                Continuous_es_energy:           -0.151464
##########           Internal_energy_repulsive:            5.189360

@<TRIPOS>MOLECULE
12
 24 25 1 0 0
SMALL
GASTEIGER


@<TRIPOS>ATOM
      1 O          24.4480    9.8728   36.6709 O.2     1  UNL1       -0.2462
      2 C          23.9096    9.5339   37.7085 C.ar    1  UNL1        0.3331
      3 N          23.1675    8.3868   37.7996 N.ar    1  UNL1       -0.2622
      4 N          24.0242   10.2898   38.8389 N.ar    1  UNL1       -0.2796
      5 C          22.5338    7.9379   38.9225 C.ar    1  UNL1        0.2822
      6 C          23.0224    7.5353   36.5927 C.3     1  UNL1        0.0196
      7 C          23.4319    9.9594   40.0475 C.ar    1  UNL1        0.1678
      8 C          24.8080   11.5384   38.8490 C.3     1  UNL1        0.0181
      9 O          21.8902    6.9037   38.9328 O.2     1  UNL1       -0.2652
     10 C          22.6966    8.8043   40.1048 C.ar    1  UNL1        0.1512
     11 N          23.1664   10.0818   41.1215 N.ar    1  UNL1       -0.2177
     12 N          22.3032    8.8300   41.4091 N.ar    1  UNL1       -0.3277
     13 C          22.7395    9.9079   42.1340 C.ar    1  UNL1        0.0986
     14 C          21.4763    7.7828   42.0206 C.3     1  UNL1        0.0135
     15 H          23.5528    7.9386   35.7292 H       1  UNL1        0.0458
     16 H          21.9618    7.4511   36.3403 H       1  UNL1        0.0458
     17 H          23.4181    6.5395   36.8083 H       1  UNL1        0.0458
     18 H          25.2723   11.7376   37.8801 H       1  UNL1        0.0458
     19 H          25.5941   11.4624   39.6052 H       1  UNL1        0.0458
     20 H          24.1490   12.3736   39.1020 H       1  UNL1        0.0458
     21 H          22.4989   10.0484   43.1769 H       1  UNL1        0.1029
     22 H          21.1806    7.0375   41.2798 H       1  UNL1        0.0456
     23 H          20.5752    8.2308   42.4471 H       1  UNL1        0.0456
     24 H          22.0441    7.2871   42.8124 H       1  UNL1        0.0456
@<TRIPOS>BOND
     1     1     2    2
     2     2     3   ar
     3     2     4   ar
     4     3     5   ar
     5     3     6    1
     6     4     7   ar
     7     4     8    1
     8     5     9    2
     9     5    10   ar
    10     7    11   ar
    11    10    12   ar
    12    11    13   ar
    13    12    14    1
    14     7    10   ar
    15    12    13   ar
    16     6    15    1
    17     6    16    1
    18     6    17    1
    19     8    18    1
    20     8    19    1
    21     8    20    1
    22    13    21    1
    23    14    22    1
    24    14    23    1
    25    14    24    1
@<TRIPOS>SUBSTRUCTURE
     1 UNL1        1 TEMP              0 ****  ****    0 ROOT


##########                                Name:                  12
##########                DOCK_Rotatable_Bonds:                   0
##########                         Heavy_Atoms:                  14
##########                    Molecular_Weight:             194.193
##########                       Formal_Charge:        -2.23517e-08
##########                     HBond_Acceptors:                   6
##########                        HBond_Donors:                   0
##########                    Continuous_Score:          -29.321213
##########               Continuous_vdw_energy:          -29.121656
##########                Continuous_es_energy:           -0.199555
##########           Internal_energy_repulsive:            5.189982

@<TRIPOS>MOLECULE
12
 24 25 1 0 0
SMALL
GASTEIGER


@<TRIPOS>ATOM
      1 O          25.0203    9.3517   36.7644 O.2     1  UNL1       -0.2462
      2 C          24.3867    9.1280   37.7791 C.ar    1  UNL1        0.3331
      3 N          23.3694    8.2121   37.8119 N.ar    1  UNL1       -0.2622
      4 N          24.6660    9.7864   38.9412 N.ar    1  UNL1       -0.2796
      5 C          22.6129    7.9040   38.9059 C.ar    1  UNL1        0.2822
      6 C          23.0375    7.4721   36.5688 C.3     1  UNL1        0.0196
      7 C          23.9783    9.5788   40.1264 C.ar    1  UNL1        0.1678
      8 C          25.7476   10.7856   39.0144 C.3     1  UNL1        0.0181
      9 O          21.7220    7.0742   38.8642 O.2     1  UNL1       -0.2652
     10 C          22.9663    8.6546   40.1253 C.ar    1  UNL1        0.1512
     11 N          23.7273    9.7274   41.2007 N.ar    1  UNL1       -0.2177
     12 N          22.5610    8.7351   41.4237 N.ar    1  UNL1       -0.3277
     13 C          23.2448    9.6346   42.1987 C.ar    1  UNL1        0.0986
     14 C          21.4749    7.9189   41.9793 C.3     1  UNL1        0.0135
     15 H          23.6758    7.7538   35.7305 H       1  UNL1        0.0458
     16 H          21.9981    7.6771   36.2978 H       1  UNL1        0.0458
     17 H          23.1547    6.4005   36.7489 H       1  UNL1        0.0458
     18 H          26.2715   10.8914   38.0614 H       1  UNL1        0.0458
     19 H          26.4676   10.4797   39.7781 H       1  UNL1        0.0458
     20 H          25.3227   11.7542   39.2921 H       1  UNL1        0.0458
     21 H          23.0233    9.7953   43.2430 H       1  UNL1        0.1029
     22 H          21.0138    7.3039   41.2041 H       1  UNL1        0.0456
     23 H          20.7113    8.5711   42.4108 H       1  UNL1        0.0456
     24 H          21.8743    7.2638   42.7581 H       1  UNL1        0.0456
@<TRIPOS>BOND
     1     1     2    2
     2     2     3   ar
     3     2     4   ar
     4     3     5   ar
     5     3     6    1
     6     4     7   ar
     7     4     8    1
     8     5     9    2
     9     5    10   ar
    10     7    11   ar
    11    10    12   ar
    12    11    13   ar
    13    12    14    1
    14     7    10   ar
    15    12    13   ar
    16     6    15    1
    17     6    16    1
    18     6    17    1
    19     8    18    1
    20     8    19    1
    21     8    20    1
    22    13    21    1
    23    14    22    1
    24    14    23    1
    25    14    24    1
@<TRIPOS>SUBSTRUCTURE
     1 UNL1        1 TEMP              0 ****  ****    0 ROOT


##########                                Name:                  12
##########                DOCK_Rotatable_Bonds:                   0
##########                         Heavy_Atoms:                  14
##########                    Molecular_Weight:             194.193
##########                       Formal_Charge:        -2.23517e-08
##########                     HBond_Acceptors:                   6
##########                        HBond_Donors:                   0
##########                    Continuous_Score:          -29.145611
##########               Continuous_vdw_energy:          -28.964100
##########                Continuous_es_energy:           -0.181511
##########           Internal_energy_repulsive:            5.189704

@<TRIPOS>MOLECULE
12
 24 25 1 0 0
SMALL
GASTEIGER


@<TRIPOS>ATOM
      1 O          24.8243    9.6072   36.8411 O.2     1  UNL1       -0.2462
      2 C          24.2054    9.3444   37.8555 C.ar    1  UNL1        0.3331
      3 N          23.3208    8.3010   37.9157 N.ar    1  UNL1       -0.2622
      4 N          24.3685   10.0854   38.9897 N.ar    1  UNL1       -0.2796
      5 C          22.5899    7.9415   39.0114 C.ar    1  UNL1        0.2822
      6 C          23.1183    7.4686   36.7036 C.3     1  UNL1        0.0196
      7 C          23.6902    9.8387   40.1728 C.ar    1  UNL1        0.1678
      8 C          25.3033   11.2246   39.0325 C.3     1  UNL1        0.0181
      9 O          21.8204    6.9972   38.9950 O.2     1  UNL1       -0.2652
     10 C          22.8126    8.7863   40.1996 C.ar    1  UNL1        0.1512
     11 N          23.3986    9.9991   41.2351 N.ar    1  UNL1       -0.2177
     12 N          22.3728    8.8682   41.4866 N.ar    1  UNL1       -0.3277
     13 C          22.9120    9.8857   42.2290 C.ar    1  UNL1        0.0986
     14 C          21.3954    7.9372   42.0634 C.3     1  UNL1        0.0135
     15 H          23.7304    7.7971   35.8628 H       1  UNL1        0.0458
     16 H          22.0668    7.5182   36.4078 H       1  UNL1        0.0458
     17 H          23.3755    6.4318   36.9352 H       1  UNL1        0.0458
     18 H          25.8282   11.3585   38.0835 H       1  UNL1        0.0458
     19 H          26.0418   11.0535   39.8203 H       1  UNL1        0.0458
     20 H          24.7457   12.1378   39.2583 H       1  UNL1        0.0458
     21 H          22.6488   10.0607   43.2612 H       1  UNL1        0.1029
     22 H          21.0381    7.2316   41.3108 H       1  UNL1        0.0456
     23 H          20.5416    8.4980   42.4524 H       1  UNL1        0.0456
     24 H          21.8630    7.3776   42.8777 H       1  UNL1        0.0456
@<TRIPOS>BOND
     1     1     2    2
     2     2     3   ar
     3     2     4   ar
     4     3     5   ar
     5     3     6    1
     6     4     7   ar
     7     4     8    1
     8     5     9    2
     9     5    10   ar
    10     7    11   ar
    11    10    12   ar
    12    11    13   ar
    13    12    14    1
    14     7    10   ar
    15    12    13   ar
    16     6    15    1
    17     6    16    1
    18     6    17    1
    19     8    18    1
    20     8    19    1
    21     8    20    1
    22    13    21    1
    23    14    22    1
    24    14    23    1
    25    14    24    1
@<TRIPOS>SUBSTRUCTURE
     1 UNL1        1 TEMP              0 ****  ****    0 ROOT


##########                                Name:                  13
##########                DOCK_Rotatable_Bonds:                   6
##########                         Heavy_Atoms:                  13
##########                    Molecular_Weight:              180.16
##########                       Formal_Charge:         9.98974e-05
##########                     HBond_Acceptors:                   4
##########                        HBond_Donors:                   3
##########                    Continuous_Score:          -26.494621
##########               Continuous_vdw_energy:          -23.575623
##########                Continuous_es_energy:           -2.918999
##########           Internal_energy_repulsive:            3.218262

@<TRIPOS>MOLECULE
13
 21 21 1 0 0
SMALL
GASTEIGER


@<TRIPOS>ATOM
      1 O          22.8491   14.2474   44.5585 O.2     1  UNL1       -0.2458
      2 C          23.2122   13.9287   43.4453 C.2     1  UNL1        0.3296
      3 O          23.8244   14.7774   42.6584 O.3     1  UNL1       -0.4775
      4 C          22.9528   12.5730   42.8994 C.2     1  UNL1        0.0229
      5 C          23.1741   12.1004   41.6610 C.2     1  UNL1       -0.0477
      6 C          22.9005   10.7362   41.1539 C.ar    1  UNL1       -0.0211
      7 C          22.3966    9.7500   42.0079 C.ar    1  UNL1       -0.0094
      8 C          23.1153   10.4316   39.8068 C.ar    1  UNL1       -0.0509
      9 C          22.0976    8.4788   41.5144 C.ar    1  UNL1        0.1588
     10 C          22.8108    9.1624   39.3124 C.ar    1  UNL1       -0.0160
     11 O          21.6070    7.5013   42.3324 O.3     1  UNL1       -0.5033
     12 C          22.2928    8.1909   40.1665 C.ar    1  UNL1        0.1582
     13 O          21.9604    6.9521   39.7092 O.3     1  UNL1       -0.5033
     14 H          23.9900   14.3574   41.8000 H       1  UNL1        0.2954
     15 H          22.5160   11.8724   43.6108 H       1  UNL1        0.0689
     16 H          23.5961   12.7751   40.9175 H       1  UNL1        0.0626
     17 H          22.2268    9.9759   43.0579 H       1  UNL1        0.0661
     18 H          23.5107   11.1875   39.1322 H       1  UNL1        0.0625
     19 H          22.9694    8.9345   38.2611 H       1  UNL1        0.0655
     20 H          21.4843    6.6806   41.8312 H       1  UNL1        0.2923
     21 H          21.6158    6.4545   40.4846 H       1  UNL1        0.2923
@<TRIPOS>BOND
     1     1     2    2
     2     2     3    1
     3     2     4    1
     4     4     5    2
     5     5     6    1
     6     6     7   ar
     7     6     8   ar
     8     7     9   ar
     9     8    10   ar
    10     9    11    1
    11     9    12   ar
    12    12    13    1
    13    10    12   ar
    14     3    14    1
    15     4    15    1
    16     5    16    1
    17     7    17    1
    18     8    18    1
    19    10    19    1
    20    11    20    1
    21    13    21    1
@<TRIPOS>SUBSTRUCTURE
     1 UNL1        1 TEMP              0 ****  ****    0 ROOT


##########                                Name:                  13
##########                DOCK_Rotatable_Bonds:                   6
##########                         Heavy_Atoms:                  13
##########                    Molecular_Weight:              180.16
##########                       Formal_Charge:         9.98974e-05
##########                     HBond_Acceptors:                   4
##########                        HBond_Donors:                   3
##########                    Continuous_Score:          -26.500542
##########               Continuous_vdw_energy:          -23.440998
##########                Continuous_es_energy:           -3.059544
##########           Internal_energy_repulsive:            2.943398

@<TRIPOS>MOLECULE
13
 21 21 1 0 0
SMALL
GASTEIGER


@<TRIPOS>ATOM
      1 O          23.6509   14.7555   42.3476 O.2     1  UNL1       -0.2458
      2 C          23.2400   13.8828   43.0838 C.2     1  UNL1        0.3296
      3 O          23.0145   14.1112   44.3531 O.3     1  UNL1       -0.4775
      4 C          23.0036   12.5006   42.5974 C.2     1  UNL1        0.0229
      5 C          23.1064   12.0109   41.3501 C.2     1  UNL1       -0.0477
      6 C          22.8611   10.6204   40.9038 C.ar    1  UNL1       -0.0211
      7 C          22.3502    9.6698   41.7933 C.ar    1  UNL1       -0.0094
      8 C          23.1101   10.2540   39.5781 C.ar    1  UNL1       -0.0509
      9 C          22.0780    8.3724   41.3557 C.ar    1  UNL1        0.1588
     10 C          22.8324    8.9585   39.1394 C.ar    1  UNL1       -0.0160
     11 O          21.5811    7.4290   42.2091 O.3     1  UNL1       -0.5033
     12 C          22.3072    8.0224   40.0280 C.ar    1  UNL1        0.1582
     13 O          22.0004    6.7588   39.6241 O.3     1  UNL1       -0.5033
     14 H          22.7610   13.2824   44.7885 H       1  UNL1        0.2954
     15 H          22.6987   11.7930   43.3682 H       1  UNL1        0.0689
     16 H          23.3945   12.6907   40.5495 H       1  UNL1        0.0626
     17 H          22.1539    9.9438   42.8271 H       1  UNL1        0.0661
     18 H          23.5114   10.9817   38.8765 H       1  UNL1        0.0625
     19 H          23.0177    8.6822   38.1040 H       1  UNL1        0.0655
     20 H          21.4880    6.5813   41.7481 H       1  UNL1        0.2923
     21 H          21.7232    6.2700   40.4315 H       1  UNL1        0.2923
@<TRIPOS>BOND
     1     1     2    2
     2     2     3    1
     3     2     4    1
     4     4     5    2
     5     5     6    1
     6     6     7   ar
     7     6     8   ar
     8     7     9   ar
     9     8    10   ar
    10     9    11    1
    11     9    12   ar
    12    12    13    1
    13    10    12   ar
    14     3    14    1
    15     4    15    1
    16     5    16    1
    17     7    17    1
    18     8    18    1
    19    10    19    1
    20    11    20    1
    21    13    21    1
@<TRIPOS>SUBSTRUCTURE
     1 UNL1        1 TEMP              0 ****  ****    0 ROOT


##########                                Name:                  13
##########                DOCK_Rotatable_Bonds:                   6
##########                         Heavy_Atoms:                  13
##########                    Molecular_Weight:              180.16
##########                       Formal_Charge:         9.98974e-05
##########                     HBond_Acceptors:                   4
##########                        HBond_Donors:                   3
##########                    Continuous_Score:          -27.019241
##########               Continuous_vdw_energy:          -23.566622
##########                Continuous_es_energy:           -3.452619
##########           Internal_energy_repulsive:            1.556825

@<TRIPOS>MOLECULE
13
 21 21 1 0 0
SMALL
GASTEIGER


@<TRIPOS>ATOM
      1 O          26.0032    7.6723   37.2700 O.2     1  UNL1       -0.2458
      2 C          25.1971    8.4032   36.7328 C.2     1  UNL1        0.3296
      3 O          25.5180    9.6173   36.3621 O.3     1  UNL1       -0.4775
      4 C          23.7948    7.9773   36.4977 C.2     1  UNL1        0.0229
      5 C          22.7376    8.0451   37.3247 C.2     1  UNL1       -0.0477
      6 C          22.7067    8.5734   38.7077 C.ar    1  UNL1       -0.0211
      7 C          22.2181    7.7876   39.7563 C.ar    1  UNL1       -0.0094
      8 C          23.1957    9.8539   38.9814 C.ar    1  UNL1       -0.0509
      9 C          22.2334    8.2734   41.0651 C.ar    1  UNL1        0.1588
     10 C          23.2162   10.3371   40.2907 C.ar    1  UNL1       -0.0160
     11 O          21.7585    7.5227   42.1024 O.3     1  UNL1       -0.5033
     12 C          22.7434    9.5408   41.3318 C.ar    1  UNL1        0.1582
     13 O          22.7751    9.9728   42.6227 O.3     1  UNL1       -0.5033
     14 H          24.7118   10.1483   36.2695 H       1  UNL1        0.2954
     15 H          23.6095    7.5451   35.5146 H       1  UNL1        0.0689
     16 H          21.7751    7.6850   36.9645 H       1  UNL1        0.0626
     17 H          21.8342    6.7905   39.5545 H       1  UNL1        0.0661
     18 H          23.5749   10.4777   38.1752 H       1  UNL1        0.0625
     19 H          23.6083   11.3298   40.4993 H       1  UNL1        0.0655
     20 H          21.3656    6.7029   41.7654 H       1  UNL1        0.2923
     21 H          23.4756   10.6619   42.6667 H       1  UNL1        0.2923
@<TRIPOS>BOND
     1     1     2    2
     2     2     3    1
     3     2     4    1
     4     4     5    2
     5     5     6    1
     6     6     7   ar
     7     6     8   ar
     8     7     9   ar
     9     8    10   ar
    10     9    11    1
    11     9    12   ar
    12    12    13    1
    13    10    12   ar
    14     3    14    1
    15     4    15    1
    16     5    16    1
    17     7    17    1
    18     8    18    1
    19    10    19    1
    20    11    20    1
    21    13    21    1
@<TRIPOS>SUBSTRUCTURE
     1 UNL1        1 TEMP              0 ****  ****    0 ROOT


##########                                Name:                  15
##########                DOCK_Rotatable_Bonds:                   4
##########                         Heavy_Atoms:                  22
##########                    Molecular_Weight:             302.197
##########                       Formal_Charge:         5.96046e-08
##########                     HBond_Acceptors:                   8
##########                        HBond_Donors:                   4
##########                    Continuous_Score:          -32.914997
##########               Continuous_vdw_energy:          -30.859997
##########                Continuous_es_energy:           -2.055001
##########           Internal_energy_repulsive:            1.365306

@<TRIPOS>MOLECULE
15
 28 31 1 0 0
SMALL
GASTEIGER


@<TRIPOS>ATOM
      1 O          21.6798    8.0343   42.4359 O.2     1  UNL1       -0.2445
      2 C          22.1598    9.0047   41.8887 C.ar    1  UNL1        0.3454
      3 O          22.3672   10.1599   42.5740 O.2     1  UNL1       -0.4178
      4 C          22.5578    9.0390   40.4679 C.ar    1  UNL1        0.0744
      5 C          22.9188   11.3099   42.0386 C.ar    1  UNL1        0.1854
      6 C          23.1179   10.2272   39.8809 C.ar    1  UNL1        0.0468
      7 C          22.4144    7.9016   39.5812 C.ar    1  UNL1       -0.0017
      8 C          23.0773   12.4790   42.8560 C.ar    1  UNL1        0.2022
      9 C          23.2948   11.3532   40.6581 C.ar    1  UNL1        0.0468
     10 C          23.4929   10.2717   38.5014 C.ar    1  UNL1        0.1854
     11 C          22.7960    7.9437   38.2359 C.ar    1  UNL1        0.1628
     12 O          22.7130   12.4691   44.1710 O.3     1  UNL1       -0.5009
     13 C          23.6173   13.6337   42.2896 C.ar    1  UNL1        0.1628
     14 C          23.8568   12.5389   40.0663 C.ar    1  UNL1        0.0744
     15 O          24.0516   11.4175   37.9659 O.2     1  UNL1       -0.4178
     16 C          23.3349    9.1045   37.6852 C.ar    1  UNL1        0.2022
     17 O          22.6443    6.8449   37.4434 O.3     1  UNL1       -0.5032
     18 O          23.7695   14.7338   43.0734 O.3     1  UNL1       -0.5032
     19 C          23.9997   13.6773   40.9473 C.ar    1  UNL1       -0.0017
     20 C          24.2592   12.5725   38.6481 C.ar    1  UNL1        0.3454
     21 O          23.7119    9.1624   36.3809 O.3     1  UNL1       -0.5009
     22 O          24.7427   13.5408   38.1002 O.2     1  UNL1       -0.2445
     23 H          21.9940    6.9906   40.0010 H       1  UNL1        0.0664
     24 H          22.4634   11.5554   44.4105 H       1  UNL1        0.2924
     25 H          22.9098    7.0437   36.5385 H       1  UNL1        0.2923
     26 H          23.4328   14.4856   43.9588 H       1  UNL1        0.2923
     27 H          24.4185   14.5932   40.5363 H       1  UNL1        0.0664
     28 H          24.0257   10.0657   36.2215 H       1  UNL1        0.2924
@<TRIPOS>BOND
     1     1     2    2
     2     2     3   ar
     3     2     4   ar
     4     3     5   ar
     5     4     6   ar
     6     4     7   ar
     7     5     8   ar
     8     5     9   ar
     9     6    10   ar
    10     7    11   ar
    11     8    12    1
    12     8    13   ar
    13     9    14   ar
    14    10    15   ar
    15    10    16   ar
    16    11    17    1
    17    13    18    1
    18    13    19   ar
    19    14    20   ar
    20    16    21    1
    21    20    22    2
    22     6     9   ar
    23    11    16   ar
    24    14    19   ar
    25    15    20   ar
    26     7    23    1
    27    12    24    1
    28    17    25    1
    29    18    26    1
    30    19    27    1
    31    21    28    1
@<TRIPOS>SUBSTRUCTURE
     1 UNL1        1 TEMP              0 ****  ****    0 ROOT


##########                                Name:                  15
##########                DOCK_Rotatable_Bonds:                   4
##########                         Heavy_Atoms:                  22
##########                    Molecular_Weight:             302.197
##########                       Formal_Charge:         5.96046e-08
##########                     HBond_Acceptors:                   8
##########                        HBond_Donors:                   4
##########                    Continuous_Score:          -32.579494
##########               Continuous_vdw_energy:          -30.830839
##########                Continuous_es_energy:           -1.748656
##########           Internal_energy_repulsive:            1.365285

@<TRIPOS>MOLECULE
15
 28 31 1 0 0
SMALL
GASTEIGER


@<TRIPOS>ATOM
      1 O          21.6580    7.9705   42.3897 O.2     1  UNL1       -0.2445
      2 C          22.1458    8.9415   41.8507 C.ar    1  UNL1        0.3454
      3 O          22.3425   10.0962   42.5403 O.2     1  UNL1       -0.4178
      4 C          22.5650    8.9774   40.4361 C.ar    1  UNL1        0.0744
      5 C          22.9016   11.2469   42.0142 C.ar    1  UNL1        0.1854
      6 C          23.1333   10.1665   39.8587 C.ar    1  UNL1        0.0468
      7 C          22.4353    7.8409   39.5463 C.ar    1  UNL1       -0.0017
      8 C          23.0474   12.4152   42.8351 C.ar    1  UNL1        0.2022
      9 C          23.2981   11.2917   40.6396 C.ar    1  UNL1        0.0468
     10 C          23.5289   10.2124   38.4850 C.ar    1  UNL1        0.1854
     11 C          22.8369    7.8843   38.2068 C.ar    1  UNL1        0.1628
     12 O          22.6635   12.4038   44.1445 O.3     1  UNL1       -0.5009
     13 C          23.5954   13.5708   42.2780 C.ar    1  UNL1        0.1628
     14 C          23.8684   12.4783   40.0574 C.ar    1  UNL1        0.0744
     15 O          24.0952   11.3590   37.9590 O.2     1  UNL1       -0.4178
     16 C          23.3835    9.0460   37.6654 C.ar    1  UNL1        0.2022
     17 O          22.6976    6.7864   37.4111 O.3     1  UNL1       -0.5032
     18 O          23.7354   14.6701   43.0650 O.3     1  UNL1       -0.5032
     19 C          23.9977   13.6158   40.9416 C.ar    1  UNL1       -0.0017
     20 C          24.2920   12.5134   38.6455 C.ar    1  UNL1        0.3454
     21 O          23.7800    9.1053   36.3669 O.3     1  UNL1       -0.5009
     22 O          24.7833   13.4824   38.1057 O.2     1  UNL1       -0.2445
     23 H          22.0089    6.9293   39.9588 H       1  UNL1        0.0664
     24 H          22.3921   11.4938   44.3740 H       1  UNL1        0.2924
     25 H          23.0248    6.9707   36.5235 H       1  UNL1        0.2923
     26 H          23.3465   14.4348   43.9324 H       1  UNL1        0.2923
     27 H          24.4223   14.5322   40.5378 H       1  UNL1        0.0664
     28 H          23.5822    8.2408   35.9755 H       1  UNL1        0.2924
@<TRIPOS>BOND
     1     1     2    2
     2     2     3   ar
     3     2     4   ar
     4     3     5   ar
     5     4     6   ar
     6     4     7   ar
     7     5     8   ar
     8     5     9   ar
     9     6    10   ar
    10     7    11   ar
    11     8    12    1
    12     8    13   ar
    13     9    14   ar
    14    10    15   ar
    15    10    16   ar
    16    11    17    1
    17    13    18    1
    18    13    19   ar
    19    14    20   ar
    20    16    21    1
    21    20    22    2
    22     6     9   ar
    23    11    16   ar
    24    14    19   ar
    25    15    20   ar
    26     7    23    1
    27    12    24    1
    28    17    25    1
    29    18    26    1
    30    19    27    1
    31    21    28    1
@<TRIPOS>SUBSTRUCTURE
     1 UNL1        1 TEMP              0 ****  ****    0 ROOT


##########                                Name:                  15
##########                DOCK_Rotatable_Bonds:                   4
##########                         Heavy_Atoms:                  22
##########                    Molecular_Weight:             302.197
##########                       Formal_Charge:         5.96046e-08
##########                     HBond_Acceptors:                   8
##########                        HBond_Donors:                   4
##########                    Continuous_Score:          -32.951447
##########               Continuous_vdw_energy:          -31.018774
##########                Continuous_es_energy:           -1.932671
##########           Internal_energy_repulsive:            1.365198

@<TRIPOS>MOLECULE
15
 28 31 1 0 0
SMALL
GASTEIGER


@<TRIPOS>ATOM
      1 O          21.7440    8.0152   42.3096 O.2     1  UNL1       -0.2445
      2 C          22.2163    9.0000   41.7819 C.ar    1  UNL1        0.3454
      3 O          22.3857   10.1525   42.4821 O.2     1  UNL1       -0.4178
      4 C          22.6442    9.0556   40.3706 C.ar    1  UNL1        0.0744
      5 C          22.9256   11.3183   41.9693 C.ar    1  UNL1        0.1854
      6 C          23.1931   10.2603   39.8068 C.ar    1  UNL1        0.0468
      7 C          22.5429    7.9243   39.4707 C.ar    1  UNL1       -0.0017
      8 C          23.0430   12.4824   42.8007 C.ar    1  UNL1        0.2022
      9 C          23.3306   11.3821   40.5980 C.ar    1  UNL1        0.0468
     10 C          23.5970   10.3253   38.4363 C.ar    1  UNL1        0.1854
     11 C          22.9525    7.9866   38.1344 C.ar    1  UNL1        0.1628
     12 O          22.6505   12.4527   44.1072 O.3     1  UNL1       -0.5009
     13 C          23.5720   13.6529   42.2568 C.ar    1  UNL1        0.1628
     14 C          23.8814   12.5843   40.0294 C.ar    1  UNL1        0.0744
     15 O          24.1443   11.4870   37.9236 O.2     1  UNL1       -0.4178
     16 C          23.4801    9.1631   37.6063 C.ar    1  UNL1        0.2022
     17 O          22.8401    6.8927   37.3289 O.3     1  UNL1       -0.5032
     18 O          23.6853   14.7482   43.0537 O.3     1  UNL1       -0.5032
     19 C          23.9825   13.7168   40.9236 C.ar    1  UNL1       -0.0017
     20 C          24.3139   12.6393   38.6207 C.ar    1  UNL1        0.3454
     21 O          23.8840    9.2409   36.3111 O.3     1  UNL1       -0.5009
     22 O          24.7897   13.6221   38.0923 O.2     1  UNL1       -0.2445
     23 H          22.1316    7.0012   39.8728 H       1  UNL1        0.0664
     24 H          22.4253   11.5300   44.3363 H       1  UNL1        0.2924
     25 H          22.4531    6.1557   37.8147 H       1  UNL1        0.2923
     26 H          23.2357   14.5211   43.8935 H       1  UNL1        0.2923
     27 H          24.3918   14.6447   40.5302 H       1  UNL1        0.0664
     28 H          24.1739   10.1541   36.1641 H       1  UNL1        0.2924
@<TRIPOS>BOND
     1     1     2    2
     2     2     3   ar
     3     2     4   ar
     4     3     5   ar
     5     4     6   ar
     6     4     7   ar
     7     5     8   ar
     8     5     9   ar
     9     6    10   ar
    10     7    11   ar
    11     8    12    1
    12     8    13   ar
    13     9    14   ar
    14    10    15   ar
    15    10    16   ar
    16    11    17    1
    17    13    18    1
    18    13    19   ar
    19    14    20   ar
    20    16    21    1
    21    20    22    2
    22     6     9   ar
    23    11    16   ar
    24    14    19   ar
    25    15    20   ar
    26     7    23    1
    27    12    24    1
    28    17    25    1
    29    18    26    1
    30    19    27    1
    31    21    28    1
@<TRIPOS>SUBSTRUCTURE
     1 UNL1        1 TEMP              0 ****  ****    0 ROOT


##########                                Name:                  16
##########                DOCK_Rotatable_Bonds:                   8
##########                         Heavy_Atoms:                  24
##########                    Molecular_Weight:             340.287
##########                       Formal_Charge:         0.000100136
##########                     HBond_Acceptors:                   9
##########                        HBond_Donors:                   5
##########                    Continuous_Score:          -38.285080
##########               Continuous_vdw_energy:          -35.338848
##########                Continuous_es_energy:           -2.946230
##########           Internal_energy_repulsive:            5.071199

@<TRIPOS>MOLECULE
16
 40 42 1 0 0
SMALL
GASTEIGER


@<TRIPOS>ATOM
      1 O          19.9623   15.1378   43.9566 O.2     1  UNL1       -0.2452
      2 C          18.8831   14.6941   43.6249 C.ar    1  UNL1        0.3372
      3 O          17.8934   14.4973   44.5306 O.2     1  UNL1       -0.4220
      4 C          18.5340   14.3352   42.2406 C.ar    1  UNL1        0.0236
      5 C          16.6628   13.9437   44.2422 C.ar    1  UNL1        0.1427
      6 C          17.2312   13.8500   41.8784 C.ar    1  UNL1       -0.0442
      7 C          16.2893   13.6682   42.8827 C.ar    1  UNL1        0.0213
      8 C          15.7200   13.7452   45.3032 C.ar    1  UNL1        0.0265
      9 C          14.9928   13.2272   42.6126 C.ar    1  UNL1       -0.0055
     10 C          14.4381   13.3000   44.9863 C.ar    1  UNL1        0.1621
     11 C          14.0698   13.0557   43.6553 C.ar    1  UNL1        0.1660
     12 O          13.5376   13.1072   45.9941 O.3     1  UNL1       -0.5032
     13 O          12.7625   12.6550   43.4179 O.3     1  UNL1       -0.4571
     14 C          12.1257   12.6053   42.1142 C.3     1  UNL1        0.2310
     15 O          11.6994   13.9258   41.6802 O.3     1  UNL1       -0.3313
     16 C          10.8728   11.6997   42.2034 C.3     1  UNL1        0.1454
     17 C          10.7829   14.6108   42.5787 C.3     1  UNL1        0.1140
     18 O          11.2404   10.3776   42.6195 O.3     1  UNL1       -0.3829
     19 C           9.8462   12.3169   43.1878 C.3     1  UNL1        0.1152
     20 C           9.4929   13.7668   42.7774 C.3     1  UNL1        0.1120
     21 C          10.5245   16.0363   42.0355 C.3     1  UNL1        0.0731
     22 O           8.6355   11.5589   43.1809 O.3     1  UNL1       -0.3864
     23 O           8.6858   13.7342   41.5907 O.3     1  UNL1       -0.3865
     24 O          10.6793   16.0979   40.6119 O.3     1  UNL1       -0.3924
     25 H          19.3240   14.4832   41.5108 H       1  UNL1        0.0689
     26 H          16.9842   13.6437   40.8393 H       1  UNL1        0.0627
     27 H          15.9994   13.9488   46.3339 H       1  UNL1        0.0692
     28 H          14.7043   13.0204   41.5861 H       1  UNL1        0.0662
     29 H          13.8652   13.5408   46.8009 H       1  UNL1        0.2923
     30 H          12.8462   12.2094   41.3820 H       1  UNL1        0.1084
     31 H          10.4229   11.6348   41.2089 H       1  UNL1        0.0683
     32 H          11.2697   14.7112   43.5532 H       1  UNL1        0.0647
     33 H          11.9682   10.4386   43.2671 H       1  UNL1        0.2102
     34 H          10.2697   12.3171   44.1966 H       1  UNL1        0.0648
     35 H           8.9025   14.2174   43.5802 H       1  UNL1        0.0647
     36 H          11.2420   16.7220   42.4941 H       1  UNL1        0.0584
     37 H           9.5163   16.3594   42.3091 H       1  UNL1        0.0584
     38 H           8.1731   11.8160   44.0051 H       1  UNL1        0.2100
     39 H           7.7501   13.7874   41.8573 H       1  UNL1        0.2100
     40 H          10.5516   17.0200   40.3227 H       1  UNL1        0.2095
@<TRIPOS>BOND
     1     1     2    2
     2     2     3   ar
     3     2     4   ar
     4     3     5   ar
     5     4     6   ar
     6     5     7   ar
     7     5     8   ar
     8     7     9   ar
     9     8    10   ar
    10     9    11   ar
    11    10    12    1
    12    11    13    1
    13    13    14    1
    14    14    15    1
    15    14    16    1
    16    15    17    1
    17    16    18    1
    18    16    19    1
    19    17    20    1
    20    17    21    1
    21    19    22    1
    22    20    23    1
    23    21    24    1
    24     6     7   ar
    25    10    11   ar
    26    19    20    1
    27     4    25    1
    28     6    26    1
    29     8    27    1
    30     9    28    1
    31    12    29    1
    32    14    30    1
    33    16    31    1
    34    17    32    1
    35    18    33    1
    36    19    34    1
    37    20    35    1
    38    21    36    1
    39    21    37    1
    40    22    38    1
    41    23    39    1
    42    24    40    1
@<TRIPOS>SUBSTRUCTURE
     1 UNL1        1 TEMP              0 ****  ****    0 ROOT


##########                                Name:                  16
##########                DOCK_Rotatable_Bonds:                   8
##########                         Heavy_Atoms:                  24
##########                    Molecular_Weight:             340.287
##########                       Formal_Charge:         0.000100136
##########                     HBond_Acceptors:                   9
##########                        HBond_Donors:                   5
##########                    Continuous_Score:          -37.184063
##########               Continuous_vdw_energy:          -34.285938
##########                Continuous_es_energy:           -2.898125
##########           Internal_energy_repulsive:            4.511862

@<TRIPOS>MOLECULE
16
 40 42 1 0 0
SMALL
GASTEIGER


@<TRIPOS>ATOM
      1 O          19.9489   15.2471   44.1363 O.2     1  UNL1       -0.2452
      2 C          18.9071   14.7421   43.7742 C.ar    1  UNL1        0.3372
      3 O          17.8703   14.5733   44.6315 O.2     1  UNL1       -0.4220
      4 C          18.6558   14.2746   42.4011 C.ar    1  UNL1        0.0236
      5 C          16.6782   13.9563   44.3113 C.ar    1  UNL1        0.1427
      6 C          17.3941   13.7179   41.9983 C.ar    1  UNL1       -0.0442
      7 C          16.3983   13.5726   42.9555 C.ar    1  UNL1        0.0213
      8 C          15.6786   13.7984   45.3261 C.ar    1  UNL1        0.0265
      9 C          15.1358   13.0669   42.6417 C.ar    1  UNL1       -0.0055
     10 C          14.4337   13.2856   44.9670 C.ar    1  UNL1        0.1621
     11 C          14.1564   12.9353   43.6375 C.ar    1  UNL1        0.1660
     12 O          13.4794   13.1312   45.9308 O.3     1  UNL1       -0.5032
     13 O          12.8797   12.4714   43.3526 O.3     1  UNL1       -0.4571
     14 C          12.2114   12.5937   42.0697 C.3     1  UNL1        0.2310
     15 O          11.8405   13.9721   41.7929 O.3     1  UNL1       -0.3313
     16 C          10.9180   11.7429   42.0960 C.3     1  UNL1        0.1454
     17 C          10.9796   14.5966   42.7854 C.3     1  UNL1        0.1140
     18 O          11.2298   10.3675   42.3565 O.3     1  UNL1       -0.3829
     19 C           9.9459   12.2957   43.1696 C.3     1  UNL1        0.1152
     20 C           9.6547   13.7965   42.9283 C.3     1  UNL1        0.1120
     21 C          10.7790   16.0832   42.4068 C.3     1  UNL1        0.0731
     22 O           8.6996   11.5997   43.1152 O.3     1  UNL1       -0.3864
     23 O           8.8199   13.9309   41.7681 O.3     1  UNL1       -0.3865
     24 O          11.3430   16.3849   41.1241 O.3     1  UNL1       -0.3924
     25 H          19.4841   14.3997   41.7107 H       1  UNL1        0.0689
     26 H          17.2186   13.4305   40.9641 H       1  UNL1        0.0627
     27 H          15.8872   14.0838   46.3543 H       1  UNL1        0.0692
     28 H          14.9181   12.7781   41.6175 H       1  UNL1        0.0662
     29 H          13.8556   13.3774   46.7934 H       1  UNL1        0.2923
     30 H          12.8947   12.2473   41.2790 H       1  UNL1        0.1084
     31 H          10.4428   11.8077   41.1132 H       1  UNL1        0.0683
     32 H          11.4931   14.5674   43.7509 H       1  UNL1        0.0647
     33 H          11.6132   10.2921   43.2509 H       1  UNL1        0.2102
     34 H          10.3921   12.1662   44.1603 H       1  UNL1        0.0648
     35 H           9.1057   14.1835   43.7913 H       1  UNL1        0.0647
     36 H          11.2704   16.7064   43.1588 H       1  UNL1        0.0584
     37 H           9.7122   16.3237   42.4041 H       1  UNL1        0.0584
     38 H           8.1933   11.9298   43.8858 H       1  UNL1        0.2100
     39 H           7.8956   13.7835   42.0394 H       1  UNL1        0.2100
     40 H          12.2589   16.6941   41.2498 H       1  UNL1        0.2095
@<TRIPOS>BOND
     1     1     2    2
     2     2     3   ar
     3     2     4   ar
     4     3     5   ar
     5     4     6   ar
     6     5     7   ar
     7     5     8   ar
     8     7     9   ar
     9     8    10   ar
    10     9    11   ar
    11    10    12    1
    12    11    13    1
    13    13    14    1
    14    14    15    1
    15    14    16    1
    16    15    17    1
    17    16    18    1
    18    16    19    1
    19    17    20    1
    20    17    21    1
    21    19    22    1
    22    20    23    1
    23    21    24    1
    24     6     7   ar
    25    10    11   ar
    26    19    20    1
    27     4    25    1
    28     6    26    1
    29     8    27    1
    30     9    28    1
    31    12    29    1
    32    14    30    1
    33    16    31    1
    34    17    32    1
    35    18    33    1
    36    19    34    1
    37    20    35    1
    38    21    36    1
    39    21    37    1
    40    22    38    1
    41    23    39    1
    42    24    40    1
@<TRIPOS>SUBSTRUCTURE
     1 UNL1        1 TEMP              0 ****  ****    0 ROOT


##########                                Name:                  16
##########                DOCK_Rotatable_Bonds:                   8
##########                         Heavy_Atoms:                  24
##########                    Molecular_Weight:             340.287
##########                       Formal_Charge:         0.000100136
##########                     HBond_Acceptors:                   9
##########                        HBond_Donors:                   5
##########                    Continuous_Score:          -37.030098
##########               Continuous_vdw_energy:          -34.435276
##########                Continuous_es_energy:           -2.594821
##########           Internal_energy_repulsive:            4.499066

@<TRIPOS>MOLECULE
16
 40 42 1 0 0
SMALL
GASTEIGER


@<TRIPOS>ATOM
      1 O          19.9524   15.1868   44.0882 O.2     1  UNL1       -0.2452
      2 C          18.9043   14.6940   43.7272 C.ar    1  UNL1        0.3372
      3 O          17.8754   14.5144   44.5917 O.2     1  UNL1       -0.4220
      4 C          18.6367   14.2539   42.3482 C.ar    1  UNL1        0.0236
      5 C          16.6769   13.9096   44.2721 C.ar    1  UNL1        0.1427
      6 C          17.3682   13.7114   41.9479 C.ar    1  UNL1       -0.0442
      7 C          16.3813   13.5531   42.9122 C.ar    1  UNL1        0.0213
      8 C          15.6868   13.7375   45.2939 C.ar    1  UNL1        0.0265
      9 C          15.1131   13.0598   42.6017 C.ar    1  UNL1       -0.0055
     10 C          14.4357   13.2379   44.9378 C.ar    1  UNL1        0.1621
     11 C          14.1430   12.9142   43.6048 C.ar    1  UNL1        0.1660
     12 O          13.4903   13.0701   45.9081 O.3     1  UNL1       -0.5032
     13 O          12.8612   12.4624   43.3242 O.3     1  UNL1       -0.4571
     14 C          12.1851   12.6018   42.0471 C.3     1  UNL1        0.2310
     15 O          11.8105   13.9833   41.7922 O.3     1  UNL1       -0.3313
     16 C          10.8932   11.7485   42.0688 C.3     1  UNL1        0.1454
     17 C          10.9544   14.5922   42.7985 C.3     1  UNL1        0.1140
     18 O          11.2087   10.3701   42.3079 O.3     1  UNL1       -0.3829
     19 C           9.9266   12.2844   43.1560 C.3     1  UNL1        0.1152
     20 C           9.6316   13.7880   42.9377 C.3     1  UNL1        0.1120
     21 C          10.7492   16.0838   42.4422 C.3     1  UNL1        0.0731
     22 O           8.6811   11.5874   43.0989 O.3     1  UNL1       -0.3864
     23 O           8.7898   13.9376   41.7846 O.3     1  UNL1       -0.3865
     24 O          11.1364   16.3648   41.0911 O.3     1  UNL1       -0.3924
     25 H          19.4588   14.3879   41.6519 H       1  UNL1        0.0689
     26 H          17.1807   13.4444   40.9102 H       1  UNL1        0.0627
     27 H          15.9073   14.0023   46.3250 H       1  UNL1        0.0692
     28 H          14.8835   12.7916   41.5745 H       1  UNL1        0.0662
     29 H          13.7327   13.6040   46.6843 H       1  UNL1        0.2923
     30 H          12.8643   12.2678   41.2476 H       1  UNL1        0.1084
     31 H          10.4121   11.8266   41.0900 H       1  UNL1        0.0683
     32 H          11.4736   14.5502   43.7605 H       1  UNL1        0.0647
     33 H          11.7348   10.3016   43.1272 H       1  UNL1        0.2102
     34 H          10.3787   12.1417   44.1421 H       1  UNL1        0.0648
     35 H           9.0872   14.1619   43.8094 H       1  UNL1        0.0647
     36 H          11.3609   16.6924   43.1137 H       1  UNL1        0.0584
     37 H           9.7008   16.3582   42.5880 H       1  UNL1        0.0584
     38 H           8.1705   11.9215   43.8650 H       1  UNL1        0.2100
     39 H           7.9684   13.4370   41.9402 H       1  UNL1        0.2100
     40 H          10.4966   15.9436   40.4881 H       1  UNL1        0.2095
@<TRIPOS>BOND
     1     1     2    2
     2     2     3   ar
     3     2     4   ar
     4     3     5   ar
     5     4     6   ar
     6     5     7   ar
     7     5     8   ar
     8     7     9   ar
     9     8    10   ar
    10     9    11   ar
    11    10    12    1
    12    11    13    1
    13    13    14    1
    14    14    15    1
    15    14    16    1
    16    15    17    1
    17    16    18    1
    18    16    19    1
    19    17    20    1
    20    17    21    1
    21    19    22    1
    22    20    23    1
    23    21    24    1
    24     6     7   ar
    25    10    11   ar
    26    19    20    1
    27     4    25    1
    28     6    26    1
    29     8    27    1
    30     9    28    1
    31    12    29    1
    32    14    30    1
    33    16    31    1
    34    17    32    1
    35    18    33    1
    36    19    34    1
    37    20    35    1
    38    21    36    1
    39    21    37    1
    40    22    38    1
    41    23    39    1
    42    24    40    1
@<TRIPOS>SUBSTRUCTURE
     1 UNL1        1 TEMP              0 ****  ****    0 ROOT


##########                                Name:                  17
##########                DOCK_Rotatable_Bonds:                   6
##########                         Heavy_Atoms:                  14
##########                    Molecular_Weight:             194.187
##########                       Formal_Charge:         0.000200033
##########                     HBond_Acceptors:                   4
##########                        HBond_Donors:                   2
##########                    Continuous_Score:          -25.872433
##########               Continuous_vdw_energy:          -23.830742
##########                Continuous_es_energy:           -2.041692
##########           Internal_energy_repulsive:            4.196040

@<TRIPOS>MOLECULE
17
 24 24 1 0 0
SMALL
GASTEIGER


@<TRIPOS>ATOM
      1 O          23.9766   14.2669   42.0196 O.2     1  UNL1       -0.2458
      2 C          23.3110   13.4941   42.6760 C.2     1  UNL1        0.3296
      3 O          22.8730   13.8168   43.8676 O.3     1  UNL1       -0.4775
      4 C          22.9936   12.1305   42.1808 C.2     1  UNL1        0.0229
      5 C          23.1579   11.6067   40.9531 C.2     1  UNL1       -0.0477
      6 C          22.8242   10.2336   40.5056 C.ar    1  UNL1       -0.0211
      7 C          23.0809    9.8321   39.1902 C.ar    1  UNL1       -0.0092
      8 C          22.2724    9.3166   41.4040 C.ar    1  UNL1       -0.0509
      9 C          22.7960    8.5241   38.7773 C.ar    1  UNL1        0.1618
     10 C          21.9923    8.0121   40.9980 C.ar    1  UNL1       -0.0160
     11 O          23.0347    8.0733   37.4870 O.3     1  UNL1       -0.4914
     12 C          22.2587    7.6154   39.6879 C.ar    1  UNL1        0.1585
     13 C          23.0768    8.9459   36.3342 C.3     1  UNL1        0.0790
     14 O          22.0033    6.3360   39.2872 O.3     1  UNL1       -0.5033
     15 H          22.5235   13.0304   44.3129 H       1  UNL1        0.2954
     16 H          22.5646   11.4661   42.9312 H       1  UNL1        0.0689
     17 H          23.5822   12.2394   40.1752 H       1  UNL1        0.0626
     18 H          23.5103   10.5475   38.4943 H       1  UNL1        0.0661
     19 H          22.0672    9.6127   42.4298 H       1  UNL1        0.0625
     20 H          21.5725    7.3009   41.7059 H       1  UNL1        0.0655
     21 H          23.2698    8.3426   35.4430 H       1  UNL1        0.0660
     22 H          23.8804    9.6771   36.4580 H       1  UNL1        0.0660
     23 H          22.1154    9.4562   36.2263 H       1  UNL1        0.0660
     24 H          21.8389    5.7975   40.0925 H       1  UNL1        0.2923
@<TRIPOS>BOND
     1     1     2    2
     2     2     3    1
     3     2     4    1
     4     4     5    2
     5     5     6    1
     6     6     7   ar
     7     6     8   ar
     8     7     9   ar
     9     8    10   ar
    10     9    11    1
    11     9    12   ar
    12    11    13    1
    13    12    14    1
    14    10    12   ar
    15     3    15    1
    16     4    16    1
    17     5    17    1
    18     7    18    1
    19     8    19    1
    20    10    20    1
    21    13    21    1
    22    13    22    1
    23    13    23    1
    24    14    24    1
@<TRIPOS>SUBSTRUCTURE
     1 UNL1        1 TEMP              0 ****  ****    0 ROOT


##########                                Name:                  17
##########                DOCK_Rotatable_Bonds:                   6
##########                         Heavy_Atoms:                  14
##########                    Molecular_Weight:             194.187
##########                       Formal_Charge:         0.000200033
##########                     HBond_Acceptors:                   4
##########                        HBond_Donors:                   2
##########                    Continuous_Score:          -26.213482
##########               Continuous_vdw_energy:          -22.579475
##########                Continuous_es_energy:           -3.634007
##########           Internal_energy_repulsive:            4.047576

@<TRIPOS>MOLECULE
17
 24 24 1 0 0
SMALL
GASTEIGER


@<TRIPOS>ATOM
      1 O          26.2945    8.4398   37.6736 O.2     1  UNL1       -0.2458
      2 C          25.9250    7.8082   36.7064 C.2     1  UNL1        0.3296
      3 O          26.7432    7.5326   35.7213 O.3     1  UNL1       -0.4775
      4 C          24.5184    7.3511   36.5703 C.2     1  UNL1        0.0229
      5 C          23.4180    7.7643   37.2239 C.2     1  UNL1       -0.0477
      6 C          23.3301    8.8079   38.2728 C.ar    1  UNL1       -0.0211
      7 C          22.8113    8.5045   39.5361 C.ar    1  UNL1       -0.0092
      8 C          23.7903   10.1022   38.0165 C.ar    1  UNL1       -0.0509
      9 C          22.7593    9.4829   40.5375 C.ar    1  UNL1        0.1618
     10 C          23.7449   11.0773   39.0124 C.ar    1  UNL1       -0.0160
     11 O          22.2589    9.2342   41.8075 O.3     1  UNL1       -0.4914
     12 C          23.2349   10.7663   40.2726 C.ar    1  UNL1        0.1585
     13 C          21.6830    7.9674   42.2020 C.3     1  UNL1        0.0790
     14 O          23.2025   11.7103   41.2578 O.3     1  UNL1       -0.5033
     15 H          26.2835    7.0067   35.0499 H       1  UNL1        0.2954
     16 H          24.3687    6.5652   35.8297 H       1  UNL1        0.0689
     17 H          22.4657    7.2984   36.9761 H       1  UNL1        0.0626
     18 H          22.4546    7.4971   39.7323 H       1  UNL1        0.0661
     19 H          24.1965   10.3540   37.0400 H       1  UNL1        0.0625
     20 H          24.1146   12.0799   38.8087 H       1  UNL1        0.0655
     21 H          21.3575    8.0378   43.2435 H       1  UNL1        0.0660
     22 H          22.4351    7.1791   42.1097 H       1  UNL1        0.0660
     23 H          20.8214    7.7435   41.5665 H       1  UNL1        0.0660
     24 H          24.0336   11.6304   41.7759 H       1  UNL1        0.2923
@<TRIPOS>BOND
     1     1     2    2
     2     2     3    1
     3     2     4    1
     4     4     5    2
     5     5     6    1
     6     6     7   ar
     7     6     8   ar
     8     7     9   ar
     9     8    10   ar
    10     9    11    1
    11     9    12   ar
    12    11    13    1
    13    12    14    1
    14    10    12   ar
    15     3    15    1
    16     4    16    1
    17     5    17    1
    18     7    18    1
    19     8    19    1
    20    10    20    1
    21    13    21    1
    22    13    22    1
    23    13    23    1
    24    14    24    1
@<TRIPOS>SUBSTRUCTURE
     1 UNL1        1 TEMP              0 ****  ****    0 ROOT


##########                                Name:                  17
##########                DOCK_Rotatable_Bonds:                   6
##########                         Heavy_Atoms:                  14
##########                    Molecular_Weight:             194.187
##########                       Formal_Charge:         0.000200033
##########                     HBond_Acceptors:                   4
##########                        HBond_Donors:                   2
##########                    Continuous_Score:          -24.881735
##########               Continuous_vdw_energy:          -23.243151
##########                Continuous_es_energy:           -1.638585
##########           Internal_energy_repulsive:            4.533300

@<TRIPOS>MOLECULE
17
 24 24 1 0 0
SMALL
GASTEIGER


@<TRIPOS>ATOM
      1 O          24.9594   15.5475   40.0558 O.2     1  UNL1       -0.2458
      2 C          24.6924   14.5449   39.4276 C.2     1  UNL1        0.3296
      3 O          24.8660   14.4892   38.1305 O.3     1  UNL1       -0.4775
      4 C          24.1179   13.3457   40.0891 C.2     1  UNL1        0.0229
      5 C          23.7169   12.1810   39.5493 C.2     1  UNL1       -0.0477
      6 C          23.1473   11.0083   40.2545 C.ar    1  UNL1       -0.0211
      7 C          22.8513    9.8329   39.5558 C.ar    1  UNL1       -0.0092
      8 C          22.9243   11.0578   41.6331 C.ar    1  UNL1       -0.0509
      9 C          22.3441    8.7138   40.2288 C.ar    1  UNL1        0.1618
     10 C          22.4243    9.9440   42.3074 C.ar    1  UNL1       -0.0160
     11 O          22.0379    7.5233   39.5854 O.3     1  UNL1       -0.4914
     12 C          22.1398    8.7723   41.6067 C.ar    1  UNL1        0.1585
     13 C          22.4318    7.2299   38.2249 C.3     1  UNL1        0.0790
     14 O          21.6661    7.6725   42.2617 O.3     1  UNL1       -0.5033
     15 H          24.6107   13.6141   37.8023 H       1  UNL1        0.2954
     16 H          24.0093   13.4349   41.1701 H       1  UNL1        0.0689
     17 H          23.8076   12.0537   38.4718 H       1  UNL1        0.0626
     18 H          23.0263    9.7978   38.4841 H       1  UNL1        0.0661
     19 H          23.1492   11.9635   42.1906 H       1  UNL1        0.0625
     20 H          22.2632    9.9866   43.3823 H       1  UNL1        0.0655
     21 H          22.0592    6.2375   37.9570 H       1  UNL1        0.0660
     22 H          23.5227    7.2400   38.1497 H       1  UNL1        0.0660
     23 H          21.9999    7.9747   37.5503 H       1  UNL1        0.0660
     24 H          21.5823    6.9464   41.6051 H       1  UNL1        0.2923
@<TRIPOS>BOND
     1     1     2    2
     2     2     3    1
     3     2     4    1
     4     4     5    2
     5     5     6    1
     6     6     7   ar
     7     6     8   ar
     8     7     9   ar
     9     8    10   ar
    10     9    11    1
    11     9    12   ar
    12    11    13    1
    13    12    14    1
    14    10    12   ar
    15     3    15    1
    16     4    16    1
    17     5    17    1
    18     7    18    1
    19     8    19    1
    20    10    20    1
    21    13    21    1
    22    13    22    1
    23    13    23    1
    24    14    24    1
@<TRIPOS>SUBSTRUCTURE
     1 UNL1        1 TEMP              0 ****  ****    0 ROOT


##########                                Name:                  18
##########                DOCK_Rotatable_Bonds:                  21
##########                         Heavy_Atoms:                  45
##########                    Molecular_Weight:             636.476
##########                       Formal_Charge:         0.000299454
##########                     HBond_Acceptors:                  18
##########                        HBond_Donors:                  11
##########                    Continuous_Score:          -62.101753
##########               Continuous_vdw_energy:          -55.673874
##########                Continuous_es_energy:           -6.427879
##########           Internal_energy_repulsive:           12.565475

@<TRIPOS>MOLECULE
18
 69 72 1 0 0
SMALL
GASTEIGER


@<TRIPOS>ATOM
      1 O          23.3451   15.2359   36.9148 O.2     1  UNL1       -0.2449
      2 C          22.2156   15.0450   36.5053 C.2     1  UNL1        0.3417
      3 O          21.1168   15.2525   37.2708 O.3     1  UNL1       -0.4287
      4 C          21.9612   14.5181   35.1213 C.ar    1  UNL1        0.0662
      5 C          21.1935   16.2018   38.3735 C.3     1  UNL1        0.2352
      6 C          22.4325   13.2465   34.7747 C.ar    1  UNL1       -0.0023
      7 C          21.2317   15.2551   34.1789 C.ar    1  UNL1       -0.0023
      8 O          22.1469   15.7498   39.3791 O.3     1  UNL1       -0.3300
      9 C          19.8067   16.3502   39.0401 C.3     1  UNL1        0.1565
     10 C          22.1452   12.7049   33.5241 C.ar    1  UNL1        0.1628
     11 C          20.9510   14.7127   32.9225 C.ar    1  UNL1        0.1628
     12 C          21.8342   14.4969   40.0601 C.3     1  UNL1        0.1260
     13 O          18.8352   16.8040   38.0888 O.3     1  UNL1       -0.3818
     14 C          19.4258   14.9951   39.6900 C.3     1  UNL1        0.1631
     15 O          22.5670   11.4509   33.1886 O.3     1  UNL1       -0.5032
     16 C          21.3973   13.4323   32.6058 C.ar    1  UNL1        0.2006
     17 O          20.2175   15.4090   32.0082 O.3     1  UNL1       -0.5032
     18 C          20.4644   14.6113   40.7547 C.3     1  UNL1        0.1241
     19 C          22.9348   14.2036   41.0930 C.3     1  UNL1        0.1216
     20 O          18.1272   15.0506   40.3263 O.3     1  UNL1       -0.4523
     21 O          21.0905   12.8502   31.4165 O.3     1  UNL1       -0.5009
     22 O          20.5183   15.5920   41.8004 O.3     1  UNL1       -0.3853
     23 O          23.3578   12.8353   40.9306 O.3     1  UNL1       -0.4584
     24 C          17.4219   13.9113   40.4552 C.2     1  UNL1        0.3398
     25 C          22.9974   11.9114   41.8452 C.2     1  UNL1        0.3395
     26 O          17.3055   13.0969   39.5564 O.2     1  UNL1       -0.2449
     27 C          16.7118   13.7571   41.7568 C.ar    1  UNL1        0.0661
     28 O          23.0059   12.1179   43.0443 O.2     1  UNL1       -0.2450
     29 C          22.7067   10.5690   41.2624 C.ar    1  UNL1        0.0661
     30 C          15.6295   12.8815   41.9153 C.ar    1  UNL1       -0.0023
     31 C          17.1843   14.4786   42.8489 C.ar    1  UNL1       -0.0023
     32 C          22.9899   10.2996   39.9192 C.ar    1  UNL1       -0.0023
     33 C          22.1689    9.5673   42.0714 C.ar    1  UNL1       -0.0023
     34 C          15.0501   12.7160   43.1738 C.ar    1  UNL1        0.1628
     35 C          16.6300   14.2947   44.1057 C.ar    1  UNL1        0.1628
     36 C          22.7330    9.0397   39.3902 C.ar    1  UNL1        0.1628
     37 C          21.9512    8.2942   41.5557 C.ar    1  UNL1        0.1628
     38 O          13.9894   11.8642   43.3626 O.3     1  UNL1       -0.5032
     39 C          15.5678   13.4073   44.2681 C.ar    1  UNL1        0.2006
     40 O          17.1823   14.9597   45.1526 O.3     1  UNL1       -0.5032
     41 O          22.9752    8.7795   38.0683 O.3     1  UNL1       -0.5032
     42 C          22.2273    8.0356   40.2140 C.ar    1  UNL1        0.2006
     43 O          21.4898    7.3110   42.3761 O.3     1  UNL1       -0.5032
     44 O          15.0330   13.1781   45.4937 O.3     1  UNL1       -0.5009
     45 O          22.0175    6.8098   39.6758 O.3     1  UNL1       -0.5009
     46 H          21.5302   17.1763   37.9847 H       1  UNL1        0.1086
     47 H          23.0082   12.6632   35.4895 H       1  UNL1        0.0663
     48 H          20.8667   16.2491   34.4246 H       1  UNL1        0.0663
     49 H          19.8818   17.1135   39.8188 H       1  UNL1        0.0694
     50 H          21.7977   13.6909   39.3209 H       1  UNL1        0.0659
     51 H          18.8874   16.2621   37.2839 H       1  UNL1        0.2102
     52 H          19.4337   14.2070   38.9311 H       1  UNL1        0.0790
     53 H          22.9239   11.0068   33.9714 H       1  UNL1        0.2923
     54 H          20.2094   14.9464   31.1648 H       1  UNL1        0.2923
     55 H          20.1902   13.6439   41.1853 H       1  UNL1        0.0658
     56 H          22.5721   14.3693   42.1124 H       1  UNL1        0.0725
     57 H          23.7939   14.8553   40.9159 H       1  UNL1        0.0725
     58 H          21.5525   11.9922   31.4280 H       1  UNL1        0.2924
     59 H          19.8555   15.3422   42.4713 H       1  UNL1        0.2101
     60 H          15.2423   12.3225   41.0678 H       1  UNL1        0.0663
     61 H          18.0219   15.1639   42.7326 H       1  UNL1        0.0663
     62 H          23.3935   11.0753   39.2727 H       1  UNL1        0.0663
     63 H          21.9545    9.7669   43.1187 H       1  UNL1        0.0663
     64 H          13.6671   11.8866   44.2848 H       1  UNL1        0.2923
     65 H          16.7318   14.6513   45.9549 H       1  UNL1        0.2923
     66 H          22.6304    7.8997   37.8276 H       1  UNL1        0.2923
     67 H          21.4785    6.4790   41.8825 H       1  UNL1        0.2923
     68 H          14.4361   12.4270   45.3495 H       1  UNL1        0.2924
     69 H          21.7324    6.2705   40.4317 H       1  UNL1        0.2924
@<TRIPOS>BOND
     1     1     2    2
     2     2     3    1
     3     2     4    1
     4     3     5    1
     5     4     6   ar
     6     4     7   ar
     7     5     8    1
     8     5     9    1
     9     6    10   ar
    10     7    11   ar
    11     8    12    1
    12     9    13    1
    13     9    14    1
    14    10    15    1
    15    10    16   ar
    16    11    17    1
    17    12    18    1
    18    12    19    1
    19    14    20    1
    20    16    21    1
    21    18    22    1
    22    19    23    1
    23    20    24    1
    24    23    25    1
    25    24    26    2
    26    24    27    1
    27    25    28    2
    28    25    29    1
    29    27    30   ar
    30    27    31   ar
    31    29    32   ar
    32    29    33   ar
    33    30    34   ar
    34    31    35   ar
    35    32    36   ar
    36    33    37   ar
    37    34    38    1
    38    34    39   ar
    39    35    40    1
    40    36    41    1
    41    36    42   ar
    42    37    43    1
    43    39    44    1
    44    42    45    1
    45    11    16   ar
    46    14    18    1
    47    35    39   ar
    48    37    42   ar
    49     5    46    1
    50     6    47    1
    51     7    48    1
    52     9    49    1
    53    12    50    1
    54    13    51    1
    55    14    52    1
    56    15    53    1
    57    17    54    1
    58    18    55    1
    59    19    56    1
    60    19    57    1
    61    21    58    1
    62    22    59    1
    63    30    60    1
    64    31    61    1
    65    32    62    1
    66    33    63    1
    67    38    64    1
    68    40    65    1
    69    41    66    1
    70    43    67    1
    71    44    68    1
    72    45    69    1
@<TRIPOS>SUBSTRUCTURE
     1 UNL1        1 TEMP              0 ****  ****    0 ROOT


##########                                Name:                  18
##########                DOCK_Rotatable_Bonds:                  21
##########                         Heavy_Atoms:                  45
##########                    Molecular_Weight:             636.476
##########                       Formal_Charge:         0.000299454
##########                     HBond_Acceptors:                  18
##########                        HBond_Donors:                  11
##########                    Continuous_Score:          -61.955658
##########               Continuous_vdw_energy:          -55.700100
##########                Continuous_es_energy:           -6.255558
##########           Internal_energy_repulsive:           12.386946

@<TRIPOS>MOLECULE
18
 69 72 1 0 0
SMALL
GASTEIGER


@<TRIPOS>ATOM
      1 O          23.4550   15.3291   36.7900 O.2     1  UNL1       -0.2449
      2 C          22.3284   15.0495   36.4262 C.2     1  UNL1        0.3417
      3 O          21.2397   15.2388   37.2108 O.3     1  UNL1       -0.4287
      4 C          22.0692   14.4270   35.0833 C.ar    1  UNL1        0.0662
      5 C          21.3160   16.1982   38.3045 C.3     1  UNL1        0.2352
      6 C          22.5885   13.1576   34.8046 C.ar    1  UNL1       -0.0023
      7 C          21.2891   15.0724   34.1144 C.ar    1  UNL1       -0.0023
      8 O          22.2596   15.7496   39.3207 O.3     1  UNL1       -0.3300
      9 C          19.9259   16.3627   38.9606 C.3     1  UNL1        0.1565
     10 C          22.2999   12.5274   33.5964 C.ar    1  UNL1        0.1628
     11 C          21.0070   14.4415   32.9005 C.ar    1  UNL1        0.1628
     12 C          21.9338   14.5057   40.0120 C.3     1  UNL1        0.1260
     13 O          18.9638   16.8137   37.9986 O.3     1  UNL1       -0.3818
     14 C          19.5314   15.0168   39.6212 C.3     1  UNL1        0.1631
     15 O          22.7693   11.2741   33.3289 O.3     1  UNL1       -0.5032
     16 C          21.5024   13.1639   32.6527 C.ar    1  UNL1        0.2006
     17 O          20.2255   15.0478   31.9623 O.3     1  UNL1       -0.5032
     18 C          20.5604   14.6364   40.6964 C.3     1  UNL1        0.1241
     19 C          23.0256   14.2150   41.0548 C.3     1  UNL1        0.1216
     20 O          18.2291   15.0875   40.2485 O.3     1  UNL1       -0.4523
     21 O          21.1972   12.4964   31.5087 O.3     1  UNL1       -0.5009
     22 O          20.6143   15.6269   41.7328 O.3     1  UNL1       -0.3853
     23 O          23.4291   12.8379   40.9190 O.3     1  UNL1       -0.4584
     24 C          17.5130   13.9551   40.3794 C.2     1  UNL1        0.3398
     25 C          23.0193   11.9289   41.8278 C.2     1  UNL1        0.3395
     26 O          17.3753   13.1483   39.4769 O.2     1  UNL1       -0.2449
     27 C          16.8190   13.8000   41.6895 C.ar    1  UNL1        0.0661
     28 O          22.9880   12.1463   43.0246 O.2     1  UNL1       -0.2450
     29 C          22.7262   10.5863   41.2464 C.ar    1  UNL1        0.0661
     30 C          15.7408   12.9218   41.8615 C.ar    1  UNL1       -0.0023
     31 C          17.3028   14.5233   42.7755 C.ar    1  UNL1       -0.0023
     32 C          23.0403   10.3044   39.9126 C.ar    1  UNL1       -0.0023
     33 C          22.1546    9.5972   42.0475 C.ar    1  UNL1       -0.0023
     34 C          15.1768   12.7557   43.1269 C.ar    1  UNL1        0.1628
     35 C          16.7640   14.3388   44.0391 C.ar    1  UNL1        0.1628
     36 C          22.7807    9.0444   39.3853 C.ar    1  UNL1        0.1628
     37 C          21.9336    8.3237   41.5346 C.ar    1  UNL1        0.1628
     38 O          14.1206   11.9016   43.3290 O.3     1  UNL1       -0.5032
     39 C          15.7060   13.4490   44.2146 C.ar    1  UNL1        0.2006
     40 O          17.3273   15.0057   45.0788 O.3     1  UNL1       -0.5032
     41 O          23.0533    8.7721   38.0718 O.3     1  UNL1       -0.5032
     42 C          22.2407    8.0524   40.2022 C.ar    1  UNL1        0.2006
     43 O          21.4383    7.3521   42.3490 O.3     1  UNL1       -0.5032
     44 O          15.1865   13.2191   45.4468 O.3     1  UNL1       -0.5009
     45 O          22.0288    6.8258   39.6665 O.3     1  UNL1       -0.5009
     46 H          21.6619   17.1665   37.9084 H       1  UNL1        0.1086
     47 H          23.2036   12.6449   35.5404 H       1  UNL1        0.0663
     48 H          20.8861   16.0635   34.3071 H       1  UNL1        0.0663
     49 H          20.0013   17.1332   39.7322 H       1  UNL1        0.0694
     50 H          21.8965   13.6926   39.2804 H       1  UNL1        0.0659
     51 H          19.0011   16.2489   37.2087 H       1  UNL1        0.2102
     52 H          19.5388   14.2212   38.8701 H       1  UNL1        0.0790
     53 H          23.1167   10.8761   34.1403 H       1  UNL1        0.2923
     54 H          20.1570   14.4956   31.1775 H       1  UNL1        0.2923
     55 H          20.2767   13.6751   41.1348 H       1  UNL1        0.0658
     56 H          22.6612   14.4045   42.0696 H       1  UNL1        0.0725
     57 H          23.8950   14.8506   40.8698 H       1  UNL1        0.0725
     58 H          21.6842   11.6544   31.5695 H       1  UNL1        0.2924
     59 H          20.0017   15.3468   42.4384 H       1  UNL1        0.2101
     60 H          15.3447   12.3615   41.0191 H       1  UNL1        0.0663
     61 H          18.1372   15.2105   42.6487 H       1  UNL1        0.0663
     62 H          23.4706   11.0703   39.2718 H       1  UNL1        0.0663
     63 H          21.9160    9.8067   43.0876 H       1  UNL1        0.0663
     64 H          13.7323   12.0103   44.2190 H       1  UNL1        0.2923
     65 H          18.0429   15.5498   44.7134 H       1  UNL1        0.2923
     66 H          22.6274    7.9369   37.8035 H       1  UNL1        0.2923
     67 H          21.4263    6.5175   41.8597 H       1  UNL1        0.2923
     68 H          14.5550   12.4971   45.3011 H       1  UNL1        0.2924
     69 H          21.7606    6.2841   40.4269 H       1  UNL1        0.2924
@<TRIPOS>BOND
     1     1     2    2
     2     2     3    1
     3     2     4    1
     4     3     5    1
     5     4     6   ar
     6     4     7   ar
     7     5     8    1
     8     5     9    1
     9     6    10   ar
    10     7    11   ar
    11     8    12    1
    12     9    13    1
    13     9    14    1
    14    10    15    1
    15    10    16   ar
    16    11    17    1
    17    12    18    1
    18    12    19    1
    19    14    20    1
    20    16    21    1
    21    18    22    1
    22    19    23    1
    23    20    24    1
    24    23    25    1
    25    24    26    2
    26    24    27    1
    27    25    28    2
    28    25    29    1
    29    27    30   ar
    30    27    31   ar
    31    29    32   ar
    32    29    33   ar
    33    30    34   ar
    34    31    35   ar
    35    32    36   ar
    36    33    37   ar
    37    34    38    1
    38    34    39   ar
    39    35    40    1
    40    36    41    1
    41    36    42   ar
    42    37    43    1
    43    39    44    1
    44    42    45    1
    45    11    16   ar
    46    14    18    1
    47    35    39   ar
    48    37    42   ar
    49     5    46    1
    50     6    47    1
    51     7    48    1
    52     9    49    1
    53    12    50    1
    54    13    51    1
    55    14    52    1
    56    15    53    1
    57    17    54    1
    58    18    55    1
    59    19    56    1
    60    19    57    1
    61    21    58    1
    62    22    59    1
    63    30    60    1
    64    31    61    1
    65    32    62    1
    66    33    63    1
    67    38    64    1
    68    40    65    1
    69    41    66    1
    70    43    67    1
    71    44    68    1
    72    45    69    1
@<TRIPOS>SUBSTRUCTURE
     1 UNL1        1 TEMP              0 ****  ****    0 ROOT


##########                                Name:                  18
##########                DOCK_Rotatable_Bonds:                  21
##########                         Heavy_Atoms:                  45
##########                    Molecular_Weight:             636.476
##########                       Formal_Charge:         0.000299454
##########                     HBond_Acceptors:                  18
##########                        HBond_Donors:                  11
##########                    Continuous_Score:          -61.251572
##########               Continuous_vdw_energy:          -55.236935
##########                Continuous_es_energy:           -6.014637
##########           Internal_energy_repulsive:           11.948627

@<TRIPOS>MOLECULE
18
 69 72 1 0 0
SMALL
GASTEIGER


@<TRIPOS>ATOM
      1 O          23.4368   15.2892   36.6568 O.2     1  UNL1       -0.2449
      2 C          22.2973   15.0405   36.3111 C.2     1  UNL1        0.3417
      3 O          21.2329   15.2026   37.1339 O.3     1  UNL1       -0.4287
      4 C          21.9940   14.4884   34.9469 C.ar    1  UNL1        0.0662
      5 C          21.3230   16.1659   38.2233 C.3     1  UNL1        0.2352
      6 C          22.5299   13.2504   34.5739 C.ar    1  UNL1       -0.0023
      7 C          21.1574   15.1672   34.0508 C.ar    1  UNL1       -0.0023
      8 O          22.2839   15.7238   39.2260 O.3     1  UNL1       -0.3300
      9 C          19.9428   16.3278   38.9007 C.3     1  UNL1        0.1565
     10 C          22.2032   12.6822   33.3448 C.ar    1  UNL1        0.1628
     11 C          20.8370   14.5988   32.8156 C.ar    1  UNL1        0.1628
     12 C          21.9734   14.4810   39.9262 C.3     1  UNL1        0.1260
     13 O          18.9643   16.7725   37.9524 O.3     1  UNL1       -0.3818
     14 C          19.5634   14.9827   39.5717 C.3     1  UNL1        0.1631
     15 O          22.6892   11.4583   32.9860 O.3     1  UNL1       -0.5032
     16 C          21.3504   13.3503   32.4739 C.ar    1  UNL1        0.2006
     17 O          20.0011   15.2368   31.9479 O.3     1  UNL1       -0.5032
     18 C          20.6104   14.6092   40.6317 C.3     1  UNL1        0.1241
     19 C          23.0823   14.1974   40.9528 C.3     1  UNL1        0.1216
     20 O          18.2708   15.0511   40.2191 O.3     1  UNL1       -0.4523
     21 O          21.0110   12.7407   31.3075 O.3     1  UNL1       -0.5009
     22 O          20.6771   15.6033   41.6640 O.3     1  UNL1       -0.3853
     23 O          23.4583   12.8101   40.8444 O.3     1  UNL1       -0.4584
     24 C          17.5594   13.9173   40.3623 C.2     1  UNL1        0.3398
     25 C          23.0189   11.9250   41.7628 C.2     1  UNL1        0.3395
     26 O          17.3645   13.1356   39.4483 O.2     1  UNL1       -0.2449
     27 C          16.9449   13.7281   41.7071 C.ar    1  UNL1        0.0661
     28 O          22.9682   12.1665   42.9544 O.2     1  UNL1       -0.2450
     29 C          22.7178   10.5753   41.2024 C.ar    1  UNL1        0.0661
     30 C          17.4526   14.3555   42.8526 C.ar    1  UNL1       -0.0023
     31 C          15.8031   12.9379   41.7990 C.ar    1  UNL1       -0.0023
     32 C          22.9829   10.2871   39.8594 C.ar    1  UNL1       -0.0023
     33 C          22.1886    9.5860   42.0319 C.ar    1  UNL1       -0.0023
     34 C          16.7934   14.2080   44.0735 C.ar    1  UNL1        0.1628
     35 C          15.1299   12.8131   43.0040 C.ar    1  UNL1        0.1628
     36 C          22.7165    9.0207   39.3511 C.ar    1  UNL1        0.1628
     37 C          21.9615    8.3065   41.5365 C.ar    1  UNL1        0.1628
     38 O          17.2642   14.8112   45.2139 O.3     1  UNL1       -0.5032
     39 C          15.6221   13.4549   44.1389 C.ar    1  UNL1        0.2006
     40 O          13.9750   12.0994   43.0213 O.3     1  UNL1       -0.5032
     41 O          22.9408    8.7419   38.0298 O.3     1  UNL1       -0.5032
     42 C          22.2195    8.0290   40.1950 C.ar    1  UNL1        0.2006
     43 O          21.5088    7.3357   42.3762 O.3     1  UNL1       -0.5032
     44 O          14.9611   13.3826   45.3215 O.3     1  UNL1       -0.5009
     45 O          22.0001    6.7965   39.6764 O.3     1  UNL1       -0.5009
     46 H          21.6594   17.1341   37.8188 H       1  UNL1        0.1086
     47 H          23.1883   12.7128   35.2521 H       1  UNL1        0.0663
     48 H          20.7404   16.1351   34.3170 H       1  UNL1        0.0663
     49 H          20.0277   17.1011   39.6686 H       1  UNL1        0.0694
     50 H          21.9273   13.6654   39.1980 H       1  UNL1        0.0659
     51 H          18.6487   16.0171   37.4290 H       1  UNL1        0.2102
     52 H          19.5617   14.1847   38.8231 H       1  UNL1        0.0790
     53 H          22.3629   11.2235   32.1051 H       1  UNL1        0.2923
     54 H          19.8557   14.6957   31.1659 H       1  UNL1        0.2923
     55 H          20.3369   13.6485   41.0777 H       1  UNL1        0.0658
     56 H          22.7435   14.4195   41.9698 H       1  UNL1        0.0725
     57 H          23.9586   14.8121   40.7328 H       1  UNL1        0.0725
     58 H          21.6028   11.9692   31.2436 H       1  UNL1        0.2924
     59 H          19.9009   15.4791   42.2417 H       1  UNL1        0.2101
     60 H          18.3509   14.9641   42.7971 H       1  UNL1        0.0663
     61 H          15.4054   12.4439   40.9145 H       1  UNL1        0.0663
     62 H          23.3796   11.0529   39.1972 H       1  UNL1        0.0663
     63 H          21.9884    9.8004   43.0791 H       1  UNL1        0.0663
     64 H          18.0443   15.3709   45.0318 H       1  UNL1        0.2923
     65 H          13.6135   12.1654   43.9193 H       1  UNL1        0.2923
     66 H          22.7951    7.7938   37.8542 H       1  UNL1        0.2923
     67 H          21.5415    6.4877   41.9115 H       1  UNL1        0.2923
     68 H          14.1762   12.8506   45.1163 H       1  UNL1        0.2924
     69 H          21.8828    6.2332   40.4590 H       1  UNL1        0.2924
@<TRIPOS>BOND
     1     1     2    2
     2     2     3    1
     3     2     4    1
     4     3     5    1
     5     4     6   ar
     6     4     7   ar
     7     5     8    1
     8     5     9    1
     9     6    10   ar
    10     7    11   ar
    11     8    12    1
    12     9    13    1
    13     9    14    1
    14    10    15    1
    15    10    16   ar
    16    11    17    1
    17    12    18    1
    18    12    19    1
    19    14    20    1
    20    16    21    1
    21    18    22    1
    22    19    23    1
    23    20    24    1
    24    23    25    1
    25    24    26    2
    26    24    27    1
    27    25    28    2
    28    25    29    1
    29    27    30   ar
    30    27    31   ar
    31    29    32   ar
    32    29    33   ar
    33    30    34   ar
    34    31    35   ar
    35    32    36   ar
    36    33    37   ar
    37    34    38    1
    38    34    39   ar
    39    35    40    1
    40    36    41    1
    41    36    42   ar
    42    37    43    1
    43    39    44    1
    44    42    45    1
    45    11    16   ar
    46    14    18    1
    47    35    39   ar
    48    37    42   ar
    49     5    46    1
    50     6    47    1
    51     7    48    1
    52     9    49    1
    53    12    50    1
    54    13    51    1
    55    14    52    1
    56    15    53    1
    57    17    54    1
    58    18    55    1
    59    19    56    1
    60    19    57    1
    61    21    58    1
    62    22    59    1
    63    30    60    1
    64    31    61    1
    65    32    62    1
    66    33    63    1
    67    38    64    1
    68    40    65    1
    69    41    66    1
    70    43    67    1
    71    44    68    1
    72    45    69    1
@<TRIPOS>SUBSTRUCTURE
     1 UNL1        1 TEMP              0 ****  ****    0 ROOT


##########                                Name:                  19
##########                DOCK_Rotatable_Bonds:                  15
##########                         Heavy_Atoms:                  43
##########                    Molecular_Weight:             610.569
##########                       Formal_Charge:         0.000100225
##########                     HBond_Acceptors:                  15
##########                        HBond_Donors:                   8
##########                    Continuous_Score:          -54.282307
##########               Continuous_vdw_energy:          -49.337097
##########                Continuous_es_energy:           -4.945209
##########           Internal_energy_repulsive:           12.385440

@<TRIPOS>MOLECULE
19
 77 81 1 0 0
SMALL
GASTEIGER


@<TRIPOS>ATOM
      1 O          12.7771   10.1831   43.9603 O.2     1  UNL1       -0.2917
      2 C          13.0521   11.2918   43.5412 C.2     1  UNL1        0.1740
      3 C          12.0434   12.2064   42.8937 C.ar    1  UNL1        0.1007
      4 C          14.4965   11.7449   43.5420 C.3     1  UNL1        0.0520
      5 C          12.4596   13.4802   42.4894 C.ar    1  UNL1        0.1389
      6 C          10.7125   11.8236   42.6536 C.ar    1  UNL1        0.1343
      7 C          14.6213   13.2759   43.6640 C.3     1  UNL1        0.1323
      8 O          13.7528   13.9083   42.6950 O.3     1  UNL1       -0.4828
      9 C          11.5878   14.3417   41.8334 C.ar    1  UNL1        0.0229
     10 O          10.2528   10.5887   43.0182 O.3     1  UNL1       -0.5058
     11 C           9.8406   12.6913   41.9868 C.ar    1  UNL1        0.0226
     12 C          16.0456   13.7297   43.3836 C.ar    1  UNL1       -0.0033
     13 C          10.2811   13.9516   41.5669 C.ar    1  UNL1        0.1310
     14 C          16.8263   14.2687   44.4084 C.ar    1  UNL1       -0.0098
     15 C          16.5723   13.6498   42.0967 C.ar    1  UNL1       -0.0514
     16 O           9.4876   14.8506   40.8760 O.3     1  UNL1       -0.4606
     17 C          18.1188   14.7253   44.1667 C.ar    1  UNL1        0.1588
     18 C          17.8605   14.1129   41.8415 C.ar    1  UNL1       -0.0159
     19 C           8.6902   15.8836   41.5047 C.3     1  UNL1        0.2308
     20 O          18.8090   15.2278   45.2350 O.3     1  UNL1       -0.5033
     21 C          18.6432   14.6569   42.8606 C.ar    1  UNL1        0.1613
     22 O           7.3448   15.4065   41.7829 O.3     1  UNL1       -0.3313
     23 C           8.6109   17.0993   40.5502 C.3     1  UNL1        0.1454
     24 O          19.9015   15.1015   42.4762 O.3     1  UNL1       -0.4915
     25 C           6.5681   14.9711   40.6321 C.3     1  UNL1        0.1144
     26 O           9.9322   17.5328   40.1949 O.3     1  UNL1       -0.3829
     27 C           7.8026   16.7342   39.2788 C.3     1  UNL1        0.1152
     28 C          20.7609   14.4627   41.5044 C.3     1  UNL1        0.0790
     29 C           6.4142   16.1576   39.6470 C.3     1  UNL1        0.1120
     30 C           5.2112   14.4438   41.1483 C.3     1  UNL1        0.0796
     31 O           7.6034   17.8996   38.4778 O.3     1  UNL1       -0.3864
     32 O           5.5988   17.1899   40.2240 O.3     1  UNL1       -0.3865
     33 O           5.3377   13.9700   42.5132 O.3     1  UNL1       -0.3461
     34 C           4.2013   13.1826   42.9587 C.3     1  UNL1        0.1879
     35 O           3.0146   14.0104   43.0950 O.3     1  UNL1       -0.3431
     36 C           4.5127   12.5019   44.3144 C.3     1  UNL1        0.1341
     37 C           3.0900   15.0643   44.0927 C.3     1  UNL1        0.0873
     38 O           5.7345   11.7616   44.2098 O.3     1  UNL1       -0.3841
     39 C           4.5926   13.5460   45.4565 C.3     1  UNL1        0.1140
     40 C           3.3182   14.4245   45.4843 C.3     1  UNL1        0.1095
     41 C           1.7888   15.8900   44.0290 C.3     1  UNL1       -0.0361
     42 O           4.7181   12.8878   46.7215 O.3     1  UNL1       -0.3864
     43 O           2.1828   13.6271   45.8514 O.3     1  UNL1       -0.3866
     44 H          14.9611   11.4138   42.6099 H       1  UNL1        0.0385
     45 H          15.0315   11.2699   44.3683 H       1  UNL1        0.0385
     46 H          14.2989   13.5864   44.6630 H       1  UNL1        0.0789
     47 H          11.9345   15.3221   41.5151 H       1  UNL1        0.0691
     48 H          10.8623   10.2125   43.6972 H       1  UNL1        0.2922
     49 H           8.8214   12.3693   41.7891 H       1  UNL1        0.0691
     50 H          16.4210   14.3432   45.4148 H       1  UNL1        0.0659
     51 H          15.9773   13.2388   41.2844 H       1  UNL1        0.0623
     52 H          18.2589   14.0565   40.8313 H       1  UNL1        0.0655
     53 H           9.1662   16.1683   42.4567 H       1  UNL1        0.1084
     54 H          18.1945   15.3809   45.9784 H       1  UNL1        0.2923
     55 H           8.1088   17.9179   41.0732 H       1  UNL1        0.0683
     56 H           7.1011   14.1545   40.1366 H       1  UNL1        0.0647
     57 H          10.2053   17.0911   39.3669 H       1  UNL1        0.2102
     58 H           8.3601   15.9907   38.7020 H       1  UNL1        0.0648
     59 H          21.7022   15.0149   41.4501 H       1  UNL1        0.0660
     60 H          20.2751   14.4748   40.5252 H       1  UNL1        0.0660
     61 H          20.9602   13.4330   41.8137 H       1  UNL1        0.0660
     62 H           5.9302   15.8004   38.7334 H       1  UNL1        0.0647
     63 H           4.8675   13.6207   40.5152 H       1  UNL1        0.0587
     64 H           4.4689   15.2462   41.1175 H       1  UNL1        0.0587
     65 H           6.7708   17.7477   37.9905 H       1  UNL1        0.2100
     66 H           5.1313   17.6447   39.5019 H       1  UNL1        0.2100
     67 H           3.9966   12.4157   42.1952 H       1  UNL1        0.0937
     68 H           3.7062   11.7988   44.5404 H       1  UNL1        0.0671
     69 H           3.9336   15.7182   43.8538 H       1  UNL1        0.0621
     70 H           5.6140   11.0476   43.5566 H       1  UNL1        0.2101
     71 H           5.4655   14.1855   45.2968 H       1  UNL1        0.0648
     72 H           3.4494   15.2147   46.2291 H       1  UNL1        0.0646
     73 H           0.9102   15.2548   44.1648 H       1  UNL1        0.0255
     74 H           1.7023   16.3833   43.0584 H       1  UNL1        0.0255
     75 H           1.7832   16.6580   44.8056 H       1  UNL1        0.0255
     76 H           4.7636   13.5853   47.4050 H       1  UNL1        0.2100
     77 H           2.0458   12.9641   45.1490 H       1  UNL1        0.2100
@<TRIPOS>BOND
     1     1     2    2
     2     2     3    1
     3     2     4    1
     4     3     5   ar
     5     3     6   ar
     6     4     7    1
     7     5     8    1
     8     5     9   ar
     9     6    10    1
    10     6    11   ar
    11     7    12    1
    12     9    13   ar
    13    12    14   ar
    14    12    15   ar
    15    13    16    1
    16    14    17   ar
    17    15    18   ar
    18    16    19    1
    19    17    20    1
    20    17    21   ar
    21    19    22    1
    22    19    23    1
    23    21    24    1
    24    22    25    1
    25    23    26    1
    26    23    27    1
    27    24    28    1
    28    25    29    1
    29    25    30    1
    30    27    31    1
    31    29    32    1
    32    30    33    1
    33    33    34    1
    34    34    35    1
    35    34    36    1
    36    35    37    1
    37    36    38    1
    38    36    39    1
    39    37    40    1
    40    37    41    1
    41    39    42    1
    42    40    43    1
    43     7     8    1
    44    11    13   ar
    45    18    21   ar
    46    27    29    1
    47    39    40    1
    48     4    44    1
    49     4    45    1
    50     7    46    1
    51     9    47    1
    52    10    48    1
    53    11    49    1
    54    14    50    1
    55    15    51    1
    56    18    52    1
    57    19    53    1
    58    20    54    1
    59    23    55    1
    60    25    56    1
    61    26    57    1
    62    27    58    1
    63    28    59    1
    64    28    60    1
    65    28    61    1
    66    29    62    1
    67    30    63    1
    68    30    64    1
    69    31    65    1
    70    32    66    1
    71    34    67    1
    72    36    68    1
    73    37    69    1
    74    38    70    1
    75    39    71    1
    76    40    72    1
    77    41    73    1
    78    41    74    1
    79    41    75    1
    80    42    76    1
    81    43    77    1
@<TRIPOS>SUBSTRUCTURE
     1 UNL1        1 TEMP              0 ****  ****    0 ROOT


##########                                Name:                  19
##########                DOCK_Rotatable_Bonds:                  15
##########                         Heavy_Atoms:                  43
##########                    Molecular_Weight:             610.569
##########                       Formal_Charge:         0.000100225
##########                     HBond_Acceptors:                  15
##########                        HBond_Donors:                   8
##########                    Continuous_Score:          -54.253384
##########               Continuous_vdw_energy:          -49.438957
##########                Continuous_es_energy:           -4.814425
##########           Internal_energy_repulsive:           12.269042

@<TRIPOS>MOLECULE
19
 77 81 1 0 0
SMALL
GASTEIGER


@<TRIPOS>ATOM
      1 O          12.7709   10.1826   43.9938 O.2     1  UNL1       -0.2917
      2 C          13.0391   11.2922   43.5724 C.2     1  UNL1        0.1740
      3 C          12.0237   12.2009   42.9274 C.ar    1  UNL1        0.1007
      4 C          14.4812   11.7525   43.5678 C.3     1  UNL1        0.0520
      5 C          12.4321   13.4764   42.5202 C.ar    1  UNL1        0.1389
      6 C          10.6939   11.8113   42.6922 C.ar    1  UNL1        0.1343
      7 C          14.5988   13.2843   43.6877 C.3     1  UNL1        0.1323
      8 O          13.7238   13.9111   42.7209 O.3     1  UNL1       -0.4828
      9 C          11.5538   14.3327   41.8661 C.ar    1  UNL1        0.0229
     10 O          10.2416   10.5745   43.0598 O.3     1  UNL1       -0.5058
     11 C           9.8154   12.6738   42.0273 C.ar    1  UNL1        0.0226
     12 C          16.0198   13.7447   43.4019 C.ar    1  UNL1       -0.0033
     13 C          10.2482   13.9359   41.6045 C.ar    1  UNL1        0.1310
     14 C          16.8076   14.2719   44.4275 C.ar    1  UNL1       -0.0098
     15 C          16.5364   13.6830   42.1100 C.ar    1  UNL1       -0.0514
     16 O           9.4479   14.8301   40.9153 O.3     1  UNL1       -0.4606
     17 C          18.0971   14.7345   44.1815 C.ar    1  UNL1        0.1588
     18 C          17.8215   14.1522   41.8507 C.ar    1  UNL1       -0.0159
     19 C           8.6404   15.8539   41.5461 C.3     1  UNL1        0.2308
     20 O          18.7948   15.2244   45.2509 O.3     1  UNL1       -0.5033
     21 C          18.6112   14.6845   42.8704 C.ar    1  UNL1        0.1613
     22 O           7.2933   15.3699   41.8041 O.3     1  UNL1       -0.3313
     23 C           8.5680   17.0796   40.6039 C.3     1  UNL1        0.1454
     24 O          19.8654   15.1368   42.4819 O.3     1  UNL1       -0.4915
     25 C           6.5309   14.9447   40.6400 C.3     1  UNL1        0.1144
     26 O           9.8918   17.5208   40.2681 O.3     1  UNL1       -0.3829
     27 C           7.7751   16.7258   39.3196 C.3     1  UNL1        0.1152
     28 C          20.7314   14.4959   41.5175 C.3     1  UNL1        0.0790
     29 C           6.3844   16.1412   39.6661 C.3     1  UNL1        0.1120
     30 C           5.1699   14.4078   41.1353 C.3     1  UNL1        0.0796
     31 O           7.5812   17.8993   38.5290 O.3     1  UNL1       -0.3864
     32 O           5.5595   17.1648   40.2448 O.3     1  UNL1       -0.3865
     33 O           5.2756   13.9471   42.5063 O.3     1  UNL1       -0.3461
     34 C           4.1259   13.1761   42.9466 C.3     1  UNL1        0.1879
     35 O           2.9483   14.0192   43.0683 O.3     1  UNL1       -0.3431
     36 C           4.4175   12.4993   44.3086 C.3     1  UNL1        0.1341
     37 C           3.0283   15.0776   44.0609 C.3     1  UNL1        0.0873
     38 O           5.6309   11.7434   44.2183 O.3     1  UNL1       -0.3841
     39 C           4.5007   13.5487   45.4457 C.3     1  UNL1        0.1140
     40 C           3.2369   14.4428   45.4578 C.3     1  UNL1        0.1095
     41 C           1.7380   15.9187   43.9816 C.3     1  UNL1       -0.0361
     42 O           4.6075   12.8960   46.7152 O.3     1  UNL1       -0.3864
     43 O           2.0888   13.6615   45.8197 O.3     1  UNL1       -0.3866
     44 H          14.9442   11.4226   42.6346 H       1  UNL1        0.0385
     45 H          15.0212   11.2811   44.3928 H       1  UNL1        0.0385
     46 H          14.2782   13.5943   44.6875 H       1  UNL1        0.0789
     47 H          11.8945   15.3145   41.5455 H       1  UNL1        0.0691
     48 H          10.8350   10.2172   43.7626 H       1  UNL1        0.2922
     49 H           8.7971   12.3465   41.8335 H       1  UNL1        0.0691
     50 H          16.4102   14.3323   45.4380 H       1  UNL1        0.0659
     51 H          15.9357   13.2815   41.2971 H       1  UNL1        0.0623
     52 H          18.2119   14.1100   40.8366 H       1  UNL1        0.0655
     53 H           9.1049   16.1297   42.5062 H       1  UNL1        0.1084
     54 H          18.1844   15.3758   45.9978 H       1  UNL1        0.2923
     55 H           8.0576   17.8910   41.1299 H       1  UNL1        0.0683
     56 H           7.0719   14.1350   40.1417 H       1  UNL1        0.0647
     57 H          10.1622   17.1153   39.4208 H       1  UNL1        0.2102
     58 H           8.3413   15.9903   38.7411 H       1  UNL1        0.0648
     59 H          21.6676   15.0563   41.4577 H       1  UNL1        0.0660
     60 H          20.2462   14.4928   40.5379 H       1  UNL1        0.0660
     61 H          20.9403   13.4715   41.8379 H       1  UNL1        0.0660
     62 H           5.9117   15.7925   38.7433 H       1  UNL1        0.0647
     63 H           4.8466   13.5759   40.5031 H       1  UNL1        0.0587
     64 H           4.4203   15.2023   41.0836 H       1  UNL1        0.0587
     65 H           6.7329   17.7684   38.0632 H       1  UNL1        0.2100
     66 H           5.0888   17.6176   39.5235 H       1  UNL1        0.2100
     67 H           3.9181   12.4076   42.1857 H       1  UNL1        0.0937
     68 H           3.6005   11.8074   44.5316 H       1  UNL1        0.0671
     69 H           3.8818   15.7198   43.8255 H       1  UNL1        0.0621
     70 H           5.5101   11.0329   43.5615 H       1  UNL1        0.2101
     71 H           5.3827   14.1765   45.2898 H       1  UNL1        0.0648
     72 H           3.3716   15.2355   46.1994 H       1  UNL1        0.0646
     73 H           0.8505   15.2952   44.1136 H       1  UNL1        0.0255
     74 H           1.6656   16.4077   43.0077 H       1  UNL1        0.0255
     75 H           1.7354   16.6912   44.7540 H       1  UNL1        0.0255
     76 H           3.8174   12.3286   46.8138 H       1  UNL1        0.2100
     77 H           1.9350   13.0123   45.1080 H       1  UNL1        0.2100
@<TRIPOS>BOND
     1     1     2    2
     2     2     3    1
     3     2     4    1
     4     3     5   ar
     5     3     6   ar
     6     4     7    1
     7     5     8    1
     8     5     9   ar
     9     6    10    1
    10     6    11   ar
    11     7    12    1
    12     9    13   ar
    13    12    14   ar
    14    12    15   ar
    15    13    16    1
    16    14    17   ar
    17    15    18   ar
    18    16    19    1
    19    17    20    1
    20    17    21   ar
    21    19    22    1
    22    19    23    1
    23    21    24    1
    24    22    25    1
    25    23    26    1
    26    23    27    1
    27    24    28    1
    28    25    29    1
    29    25    30    1
    30    27    31    1
    31    29    32    1
    32    30    33    1
    33    33    34    1
    34    34    35    1
    35    34    36    1
    36    35    37    1
    37    36    38    1
    38    36    39    1
    39    37    40    1
    40    37    41    1
    41    39    42    1
    42    40    43    1
    43     7     8    1
    44    11    13   ar
    45    18    21   ar
    46    27    29    1
    47    39    40    1
    48     4    44    1
    49     4    45    1
    50     7    46    1
    51     9    47    1
    52    10    48    1
    53    11    49    1
    54    14    50    1
    55    15    51    1
    56    18    52    1
    57    19    53    1
    58    20    54    1
    59    23    55    1
    60    25    56    1
    61    26    57    1
    62    27    58    1
    63    28    59    1
    64    28    60    1
    65    28    61    1
    66    29    62    1
    67    30    63    1
    68    30    64    1
    69    31    65    1
    70    32    66    1
    71    34    67    1
    72    36    68    1
    73    37    69    1
    74    38    70    1
    75    39    71    1
    76    40    72    1
    77    41    73    1
    78    41    74    1
    79    41    75    1
    80    42    76    1
    81    43    77    1
@<TRIPOS>SUBSTRUCTURE
     1 UNL1        1 TEMP              0 ****  ****    0 ROOT


##########                                Name:                  19
##########                DOCK_Rotatable_Bonds:                  15
##########                         Heavy_Atoms:                  43
##########                    Molecular_Weight:             610.569
##########                       Formal_Charge:         0.000100225
##########                     HBond_Acceptors:                  15
##########                        HBond_Donors:                   8
##########                    Continuous_Score:          -54.388809
##########               Continuous_vdw_energy:          -49.689022
##########                Continuous_es_energy:           -4.699789
##########           Internal_energy_repulsive:           12.347795

@<TRIPOS>MOLECULE
19
 77 81 1 0 0
SMALL
GASTEIGER


@<TRIPOS>ATOM
      1 O          12.8082   10.2956   44.0001 O.2     1  UNL1       -0.2917
      2 C          13.1039   11.3845   43.5446 C.2     1  UNL1        0.1740
      3 C          12.1080   12.3047   42.8853 C.ar    1  UNL1        0.1007
      4 C          14.5588   11.8013   43.5108 C.3     1  UNL1        0.0520
      5 C          12.5489   13.5555   42.4377 C.ar    1  UNL1        0.1389
      6 C          10.7645   11.9484   42.6761 C.ar    1  UNL1        0.1343
      7 C          14.7229   13.3317   43.5860 C.3     1  UNL1        0.1323
      8 O          13.8553   13.9570   42.6116 O.3     1  UNL1       -0.4828
      9 C          11.6884   14.4190   41.7695 C.ar    1  UNL1        0.0229
     10 O          10.2805   10.7364   43.0836 O.3     1  UNL1       -0.5058
     11 C           9.9041   12.8179   41.9970 C.ar    1  UNL1        0.0226
     12 C          16.1533   13.7414   43.2714 C.ar    1  UNL1       -0.0033
     13 C          10.3687   14.0541   41.5337 C.ar    1  UNL1        0.1310
     14 C          16.9994   14.1804   44.2922 C.ar    1  UNL1       -0.0098
     15 C          16.6220   13.7215   41.9602 C.ar    1  UNL1       -0.0514
     16 O           9.5870   14.9522   40.8284 O.3     1  UNL1       -0.4606
     17 C          18.3001   14.5962   44.0223 C.ar    1  UNL1        0.1588
     18 C          17.9181   14.1448   41.6774 C.ar    1  UNL1       -0.0159
     19 C           8.7534   15.9645   41.4436 C.3     1  UNL1        0.2308
     20 O          19.0560   14.9996   45.0880 O.3     1  UNL1       -0.5033
     21 C          18.7662   14.5890   42.6924 C.ar    1  UNL1        0.1613
     22 O           7.4119   15.4579   41.6869 O.3     1  UNL1       -0.3313
     23 C           8.6715   17.1841   40.4942 C.3     1  UNL1        0.1454
     24 O          20.0263   15.0034   42.2812 O.3     1  UNL1       -0.4915
     25 C           6.6722   15.0135   40.5153 C.3     1  UNL1        0.1144
     26 O           9.9915   17.6471   40.1730 O.3     1  UNL1       -0.3829
     27 C           7.9016   16.8100   39.2018 C.3     1  UNL1        0.1152
     28 C          20.8294   14.3713   41.2581 C.3     1  UNL1        0.0790
     29 C           6.5171   16.2025   39.5334 C.3     1  UNL1        0.1120
     30 C           5.3146   14.4552   40.9961 C.3     1  UNL1        0.0796
     31 O           7.6971   17.9759   38.4027 O.3     1  UNL1       -0.3864
     32 O           5.6668   17.2142   40.0964 O.3     1  UNL1       -0.3865
     33 O           5.4458   13.8720   42.3173 O.3     1  UNL1       -0.3461
     34 C           4.2749   13.1211   42.7359 C.3     1  UNL1        0.1879
     35 O           3.1139   13.9874   42.8524 O.3     1  UNL1       -0.3431
     36 C           4.5358   12.4243   44.0941 C.3     1  UNL1        0.1341
     37 C           3.2042   15.0339   43.8569 C.3     1  UNL1        0.0873
     38 O           5.7341   11.6440   44.0102 O.3     1  UNL1       -0.3841
     39 C           4.6274   13.4601   45.2429 C.3     1  UNL1        0.1140
     40 C           3.3826   14.3805   45.2495 C.3     1  UNL1        0.1095
     41 C           1.9329   15.9027   43.7712 C.3     1  UNL1       -0.0361
     42 O           4.7052   12.7924   46.5067 O.3     1  UNL1       -0.3864
     43 O           2.2141   13.6200   45.5895 O.3     1  UNL1       -0.3866
     44 H          15.0006   11.4318   42.5822 H       1  UNL1        0.0385
     45 H          15.0945   11.3374   44.3428 H       1  UNL1        0.0385
     46 H          14.4236   13.6790   44.5800 H       1  UNL1        0.0789
     47 H          12.0541   15.3809   41.4174 H       1  UNL1        0.0691
     48 H          10.8575   10.3928   43.8067 H       1  UNL1        0.2922
     49 H           8.8743   12.5157   41.8238 H       1  UNL1        0.0691
     50 H          16.6399   14.2076   45.3182 H       1  UNL1        0.0659
     51 H          15.9759   13.3889   41.1510 H       1  UNL1        0.0623
     52 H          18.2713   14.1363   40.6489 H       1  UNL1        0.0655
     53 H           9.2005   16.2533   42.4082 H       1  UNL1        0.1084
     54 H          18.4775   15.1522   45.8599 H       1  UNL1        0.2923
     55 H           8.1401   17.9889   41.0094 H       1  UNL1        0.0683
     56 H           7.2337   14.2111   40.0282 H       1  UNL1        0.0647
     57 H          10.4472   16.9731   39.6313 H       1  UNL1        0.2102
     58 H           8.4880   16.0818   38.6343 H       1  UNL1        0.0648
     59 H          21.7877   14.8920   41.1911 H       1  UNL1        0.0660
     60 H          20.3122   14.4364   40.2973 H       1  UNL1        0.0660
     61 H          21.0016   13.3246   41.5235 H       1  UNL1        0.0660
     62 H           6.0625   15.8409   38.6065 H       1  UNL1        0.0647
     63 H           4.9616   13.6882   40.3008 H       1  UNL1        0.0587
     64 H           4.5778   15.2622   41.0348 H       1  UNL1        0.0587
     65 H           6.8200   17.8634   37.9883 H       1  UNL1        0.2100
     66 H           5.4251   17.8349   39.3870 H       1  UNL1        0.2100
     67 H           4.0603   12.3648   41.9645 H       1  UNL1        0.0937
     68 H           3.7019   11.7476   44.3001 H       1  UNL1        0.0671
     69 H           4.0738   15.6601   43.6384 H       1  UNL1        0.0621
     70 H           6.4799   12.2356   43.7987 H       1  UNL1        0.2101
     71 H           5.5243   14.0707   45.1041 H       1  UNL1        0.0648
     72 H           3.5250   15.1625   46.0009 H       1  UNL1        0.0646
     73 H           1.0310   15.2968   43.8861 H       1  UNL1        0.0255
     74 H           1.8826   16.4031   42.8016 H       1  UNL1        0.0255
     75 H           1.9371   16.6671   44.5514 H       1  UNL1        0.0255
     76 H           4.7998   13.4838   47.1915 H       1  UNL1        0.2100
     77 H           2.3814   13.1858   46.4470 H       1  UNL1        0.2100
@<TRIPOS>BOND
     1     1     2    2
     2     2     3    1
     3     2     4    1
     4     3     5   ar
     5     3     6   ar
     6     4     7    1
     7     5     8    1
     8     5     9   ar
     9     6    10    1
    10     6    11   ar
    11     7    12    1
    12     9    13   ar
    13    12    14   ar
    14    12    15   ar
    15    13    16    1
    16    14    17   ar
    17    15    18   ar
    18    16    19    1
    19    17    20    1
    20    17    21   ar
    21    19    22    1
    22    19    23    1
    23    21    24    1
    24    22    25    1
    25    23    26    1
    26    23    27    1
    27    24    28    1
    28    25    29    1
    29    25    30    1
    30    27    31    1
    31    29    32    1
    32    30    33    1
    33    33    34    1
    34    34    35    1
    35    34    36    1
    36    35    37    1
    37    36    38    1
    38    36    39    1
    39    37    40    1
    40    37    41    1
    41    39    42    1
    42    40    43    1
    43     7     8    1
    44    11    13   ar
    45    18    21   ar
    46    27    29    1
    47    39    40    1
    48     4    44    1
    49     4    45    1
    50     7    46    1
    51     9    47    1
    52    10    48    1
    53    11    49    1
    54    14    50    1
    55    15    51    1
    56    18    52    1
    57    19    53    1
    58    20    54    1
    59    23    55    1
    60    25    56    1
    61    26    57    1
    62    27    58    1
    63    28    59    1
    64    28    60    1
    65    28    61    1
    66    29    62    1
    67    30    63    1
    68    30    64    1
    69    31    65    1
    70    32    66    1
    71    34    67    1
    72    36    68    1
    73    37    69    1
    74    38    70    1
    75    39    71    1
    76    40    72    1
    77    41    73    1
    78    41    74    1
    79    41    75    1
    80    42    76    1
    81    43    77    1
@<TRIPOS>SUBSTRUCTURE
     1 UNL1        1 TEMP              0 ****  ****    0 ROOT


##########                                Name:                  20
##########                DOCK_Rotatable_Bonds:                   2
##########                         Heavy_Atoms:                   9
##########                    Molecular_Weight:             124.139
##########                       Formal_Charge:        -5.96046e-08
##########                     HBond_Acceptors:                   2
##########                        HBond_Donors:                   1
##########                    Continuous_Score:          -21.289513
##########               Continuous_vdw_energy:          -20.537203
##########                Continuous_es_energy:           -0.752309
##########           Internal_energy_repulsive:            2.807680

@<TRIPOS>MOLECULE
20
 17 17 1 0 0
SMALL
GASTEIGER


@<TRIPOS>ATOM
      1 O          22.1068    7.3123   38.7943 O.3     1  UNL1       -0.4951
      2 C          22.2984    8.2215   39.8189 C.ar    1  UNL1        0.1203
      3 C          22.6132    7.5070   37.4533 C.3     1  UNL1        0.0788
      4 C          21.8315    8.0001   41.1196 C.ar    1  UNL1       -0.0165
      5 C          22.9832    9.4001   39.5245 C.ar    1  UNL1       -0.0165
      6 C          22.0489    8.9548   42.1115 C.ar    1  UNL1       -0.0167
      7 C          23.2003   10.3538   40.5171 C.ar    1  UNL1       -0.0167
      8 C          22.7324   10.1323   41.8108 C.ar    1  UNL1        0.1171
      9 O          22.9447   11.0697   42.7775 O.3     1  UNL1       -0.5068
     10 H          22.3385    6.6424   36.8432 H       1  UNL1        0.0660
     11 H          23.7023    7.5985   37.4844 H       1  UNL1        0.0660
     12 H          22.1710    8.4103   37.0243 H       1  UNL1        0.0660
     13 H          21.2964    7.0911   41.3767 H       1  UNL1        0.0655
     14 H          23.3484    9.5774   38.5163 H       1  UNL1        0.0655
     15 H          21.6820    8.7750   43.1189 H       1  UNL1        0.0655
     16 H          23.7343   11.2706   40.2790 H       1  UNL1        0.0655
     17 H          23.4218   11.8329   42.4052 H       1  UNL1        0.2921
@<TRIPOS>BOND
     1     1     2    1
     2     1     3    1
     3     2     4   ar
     4     2     5   ar
     5     4     6   ar
     6     5     7   ar
     7     6     8   ar
     8     8     9    1
     9     7     8   ar
    10     3    10    1
    11     3    11    1
    12     3    12    1
    13     4    13    1
    14     5    14    1
    15     6    15    1
    16     7    16    1
    17     9    17    1
@<TRIPOS>SUBSTRUCTURE
     1 UNL1        1 TEMP              0 ****  ****    0 ROOT


##########                                Name:                  20
##########                DOCK_Rotatable_Bonds:                   2
##########                         Heavy_Atoms:                   9
##########                    Molecular_Weight:             124.139
##########                       Formal_Charge:        -5.96046e-08
##########                     HBond_Acceptors:                   2
##########                        HBond_Donors:                   1
##########                    Continuous_Score:          -21.241175
##########               Continuous_vdw_energy:          -20.342556
##########                Continuous_es_energy:           -0.898618
##########           Internal_energy_repulsive:            2.813397

@<TRIPOS>MOLECULE
20
 17 17 1 0 0
SMALL
GASTEIGER


@<TRIPOS>ATOM
      1 O          22.0475    7.2415   38.9214 O.3     1  UNL1       -0.4951
      2 C          22.2356    8.1440   39.9529 C.ar    1  UNL1        0.1203
      3 C          22.5971    7.4231   37.5957 C.3     1  UNL1        0.0788
      4 C          21.6952    7.9521   41.2294 C.ar    1  UNL1       -0.0165
      5 C          22.9938    9.2845   39.6904 C.ar    1  UNL1       -0.0165
      6 C          21.9131    8.8984   42.2293 C.ar    1  UNL1       -0.0167
      7 C          23.2113   10.2298   40.6909 C.ar    1  UNL1       -0.0167
      8 C          22.6702   10.0378   41.9605 C.ar    1  UNL1        0.1171
      9 O          22.8833   10.9670   42.9350 O.3     1  UNL1       -0.5068
     10 H          22.3153    6.5674   36.9765 H       1  UNL1        0.0660
     11 H          23.6871    7.4836   37.6579 H       1  UNL1        0.0660
     12 H          22.1931    8.3392   37.1560 H       1  UNL1        0.0660
     13 H          21.1019    7.0728   41.4617 H       1  UNL1        0.0655
     14 H          23.4164    9.4386   38.7009 H       1  UNL1        0.0655
     15 H          21.4888    8.7417   43.2179 H       1  UNL1        0.0655
     16 H          23.8028   11.1168   40.4778 H       1  UNL1        0.0655
     17 H          23.4257   11.6980   42.5882 H       1  UNL1        0.2921
@<TRIPOS>BOND
     1     1     2    1
     2     1     3    1
     3     2     4   ar
     4     2     5   ar
     5     4     6   ar
     6     5     7   ar
     7     6     8   ar
     8     8     9    1
     9     7     8   ar
    10     3    10    1
    11     3    11    1
    12     3    12    1
    13     4    13    1
    14     5    14    1
    15     6    15    1
    16     7    16    1
    17     9    17    1
@<TRIPOS>SUBSTRUCTURE
     1 UNL1        1 TEMP              0 ****  ****    0 ROOT


##########                                Name:                  20
##########                DOCK_Rotatable_Bonds:                   2
##########                         Heavy_Atoms:                   9
##########                    Molecular_Weight:             124.139
##########                       Formal_Charge:        -5.96046e-08
##########                     HBond_Acceptors:                   2
##########                        HBond_Donors:                   1
##########                    Continuous_Score:          -21.061176
##########               Continuous_vdw_energy:          -20.641151
##########                Continuous_es_energy:           -0.420024
##########           Internal_energy_repulsive:            2.792115

@<TRIPOS>MOLECULE
20
 17 17 1 0 0
SMALL
GASTEIGER


@<TRIPOS>ATOM
      1 O          21.9922    7.3827   38.8271 O.3     1  UNL1       -0.4951
      2 C          22.2226    8.2472   39.8821 C.ar    1  UNL1        0.1203
      3 C          22.5782    7.5543   37.5158 C.3     1  UNL1        0.0788
      4 C          21.7350    8.0082   41.1720 C.ar    1  UNL1       -0.0165
      5 C          22.9697    9.3975   39.6304 C.ar    1  UNL1       -0.0165
      6 C          21.9940    8.9177   42.1958 C.ar    1  UNL1       -0.0167
      7 C          23.2283   10.3060   40.6549 C.ar    1  UNL1       -0.0167
      8 C          22.7397   10.0673   41.9380 C.ar    1  UNL1        0.1171
      9 O          22.9927   10.9607   42.9360 O.3     1  UNL1       -0.5068
     10 H          22.2497    6.7338   36.8723 H       1  UNL1        0.0660
     11 H          23.6684    7.5373   37.5983 H       1  UNL1        0.0660
     12 H          22.2469    8.5055   37.0903 H       1  UNL1        0.0660
     13 H          21.1516    7.1204   41.3962 H       1  UNL1        0.0655
     14 H          23.3513    9.5880   38.6308 H       1  UNL1        0.0655
     15 H          21.6106    8.7247   43.1947 H       1  UNL1        0.0655
     16 H          23.8107   11.2011   40.4503 H       1  UNL1        0.0655
     17 H          22.6167   10.6404   43.7757 H       1  UNL1        0.2921
@<TRIPOS>BOND
     1     1     2    1
     2     1     3    1
     3     2     4   ar
     4     2     5   ar
     5     4     6   ar
     6     5     7   ar
     7     6     8   ar
     8     8     9    1
     9     7     8   ar
    10     3    10    1
    11     3    11    1
    12     3    12    1
    13     4    13    1
    14     5    14    1
    15     6    15    1
    16     7    16    1
    17     9    17    1
@<TRIPOS>SUBSTRUCTURE
     1 UNL1        1 TEMP              0 ****  ****    0 ROOT


##########                                Name:                  21
##########                DOCK_Rotatable_Bonds:                   3
##########                         Heavy_Atoms:                  10
##########                    Molecular_Weight:             138.123
##########                       Formal_Charge:         0.000100017
##########                     HBond_Acceptors:                   3
##########                        HBond_Donors:                   2
##########                    Continuous_Score:          -22.220533
##########               Continuous_vdw_energy:          -21.402479
##########                Continuous_es_energy:           -0.818055
##########           Internal_energy_repulsive:            1.829493

@<TRIPOS>MOLECULE
21
 16 16 1 0 0
SMALL
GASTEIGER


@<TRIPOS>ATOM
      1 O          22.5415    9.8200   42.7515 O.2     1  UNL1       -0.2451
      2 C          22.1209    8.9136   42.0613 C.2     1  UNL1        0.3368
      3 O          21.3633    7.9782   42.5703 O.3     1  UNL1       -0.4771
      4 C          22.4671    8.7557   40.6054 C.ar    1  UNL1        0.0591
      5 C          22.1495    7.5597   39.9530 C.ar    1  UNL1       -0.0443
      6 C          23.0991    9.7743   39.8778 C.ar    1  UNL1       -0.0443
      7 C          22.4206    7.3950   38.5962 C.ar    1  UNL1       -0.0194
      8 C          23.3852    9.6030   38.5249 C.ar    1  UNL1       -0.0194
      9 C          23.0322    8.4210   37.8792 C.ar    1  UNL1        0.1169
     10 O          23.2770    8.2809   36.5471 O.3     1  UNL1       -0.5068
     11 H          21.1371    7.3649   41.8519 H       1  UNL1        0.2954
     12 H          21.6668    6.7513   40.4976 H       1  UNL1        0.0627
     13 H          23.3845   10.7088   40.3531 H       1  UNL1        0.0627
     14 H          22.1490    6.4653   38.1019 H       1  UNL1        0.0654
     15 H          23.8759   10.3996   37.9702 H       1  UNL1        0.0654
     16 H          22.9221    7.4306   36.2307 H       1  UNL1        0.2921
@<TRIPOS>BOND
     1     1     2    2
     2     2     3    1
     3     2     4    1
     4     4     5   ar
     5     4     6   ar
     6     5     7   ar
     7     6     8   ar
     8     7     9   ar
     9     9    10    1
    10     8     9   ar
    11     3    11    1
    12     5    12    1
    13     6    13    1
    14     7    14    1
    15     8    15    1
    16    10    16    1
@<TRIPOS>SUBSTRUCTURE
     1 UNL1        1 TEMP              0 ****  ****    0 ROOT


##########                                Name:                  21
##########                DOCK_Rotatable_Bonds:                   3
##########                         Heavy_Atoms:                  10
##########                    Molecular_Weight:             138.123
##########                       Formal_Charge:         0.000100017
##########                     HBond_Acceptors:                   3
##########                        HBond_Donors:                   2
##########                    Continuous_Score:          -22.421949
##########               Continuous_vdw_energy:          -19.696396
##########                Continuous_es_energy:           -2.725554
##########           Internal_energy_repulsive:            1.520757

@<TRIPOS>MOLECULE
21
 16 16 1 0 0
SMALL
GASTEIGER


@<TRIPOS>ATOM
      1 O          24.3476   10.3500   37.7382 O.2     1  UNL1       -0.2451
      2 C          24.0275   10.7600   38.8355 C.2     1  UNL1        0.3368
      3 O          24.3624   11.9611   39.2275 O.3     1  UNL1       -0.4771
      4 C          23.2818    9.9270   39.8427 C.ar    1  UNL1        0.0591
      5 C          22.7750    8.6811   39.4584 C.ar    1  UNL1       -0.0443
      6 C          23.0792   10.3608   41.1606 C.ar    1  UNL1       -0.0443
      7 C          22.1137    7.8675   40.3762 C.ar    1  UNL1       -0.0194
      8 C          22.4032    9.5542   42.0739 C.ar    1  UNL1       -0.0194
      9 C          21.9343    8.3013   41.6879 C.ar    1  UNL1        0.1169
     10 O          21.3135    7.5029   42.5997 O.3     1  UNL1       -0.5068
     11 H          24.0468   12.0672   40.1397 H       1  UNL1        0.2954
     12 H          22.9117    8.3258   38.4394 H       1  UNL1        0.0627
     13 H          23.4352   11.3322   41.4923 H       1  UNL1        0.0627
     14 H          21.7436    6.8938   40.0639 H       1  UNL1        0.0654
     15 H          22.2512    9.9006   43.0936 H       1  UNL1        0.0654
     16 H          21.1170    6.6349   42.2035 H       1  UNL1        0.2921
@<TRIPOS>BOND
     1     1     2    2
     2     2     3    1
     3     2     4    1
     4     4     5   ar
     5     4     6   ar
     6     5     7   ar
     7     6     8   ar
     8     7     9   ar
     9     9    10    1
    10     8     9   ar
    11     3    11    1
    12     5    12    1
    13     6    13    1
    14     7    14    1
    15     8    15    1
    16    10    16    1
@<TRIPOS>SUBSTRUCTURE
     1 UNL1        1 TEMP              0 ****  ****    0 ROOT


##########                                Name:                  21
##########                DOCK_Rotatable_Bonds:                   3
##########                         Heavy_Atoms:                  10
##########                    Molecular_Weight:             138.123
##########                       Formal_Charge:         0.000100017
##########                     HBond_Acceptors:                   3
##########                        HBond_Donors:                   2
##########                    Continuous_Score:          -22.511187
##########               Continuous_vdw_energy:          -19.594868
##########                Continuous_es_energy:           -2.916319
##########           Internal_energy_repulsive:            1.423635

@<TRIPOS>MOLECULE
21
 16 16 1 0 0
SMALL
GASTEIGER


@<TRIPOS>ATOM
      1 O          24.0943   10.4270   37.7346 O.2     1  UNL1       -0.2451
      2 C          24.0352   10.6943   38.9178 C.2     1  UNL1        0.3368
      3 O          24.7014   11.7045   39.4119 O.3     1  UNL1       -0.4771
      4 C          23.2535    9.8773   39.9106 C.ar    1  UNL1        0.0591
      5 C          22.7391    8.6362   39.5206 C.ar    1  UNL1       -0.0443
      6 C          23.0244   10.3213   41.2208 C.ar    1  UNL1       -0.0443
      7 C          22.0442    7.8370   40.4260 C.ar    1  UNL1       -0.0194
      8 C          22.3151    9.5292   42.1212 C.ar    1  UNL1       -0.0194
      9 C          21.8386    8.2806   41.7305 C.ar    1  UNL1        0.1169
     10 O          21.1846    7.4960   42.6309 O.3     1  UNL1       -0.5068
     11 H          24.4305   11.8051   40.3391 H       1  UNL1        0.2954
     12 H          22.8960    8.2733   38.5071 H       1  UNL1        0.0627
     13 H          23.3855   11.2896   41.5561 H       1  UNL1        0.0627
     14 H          21.6685    6.8667   40.1098 H       1  UNL1        0.0654
     15 H          22.1427    9.8835   43.1351 H       1  UNL1        0.0654
     16 H          20.9804    6.6307   42.2326 H       1  UNL1        0.2921
@<TRIPOS>BOND
     1     1     2    2
     2     2     3    1
     3     2     4    1
     4     4     5   ar
     5     4     6   ar
     6     5     7   ar
     7     6     8   ar
     8     7     9   ar
     9     9    10    1
    10     8     9   ar
    11     3    11    1
    12     5    12    1
    13     6    13    1
    14     7    14    1
    15     8    15    1
    16    10    16    1
@<TRIPOS>SUBSTRUCTURE
     1 UNL1        1 TEMP              0 ****  ****    0 ROOT


##########                                Name:                  22
##########                DOCK_Rotatable_Bonds:                   2
##########                         Heavy_Atoms:                  18
##########                    Molecular_Weight:             238.243
##########                       Formal_Charge:         5.96046e-08
##########                     HBond_Acceptors:                   3
##########                        HBond_Donors:                   1
##########                    Continuous_Score:          -27.876776
##########               Continuous_vdw_energy:          -26.406851
##########                Continuous_es_energy:           -1.469925
##########           Internal_energy_repulsive:            1.685433

@<TRIPOS>MOLECULE
22
 28 30 1 0 0
SMALL
GASTEIGER


@<TRIPOS>ATOM
      1 O          22.0431    6.2019   39.3767 O.2     1  UNL1       -0.2870
      2 C          22.5030    7.2615   38.9982 C.ar    1  UNL1        0.1931
      3 C          22.6318    8.4558   39.8466 C.ar    1  UNL1        0.0640
      4 C          23.0050    7.4978   37.6225 C.ar    1  UNL1        0.0288
      5 C          23.1766    9.5624   39.2285 C.ar    1  UNL1        0.1392
      6 C          22.2500    8.5667   41.2342 C.ar    1  UNL1       -0.0474
      7 C          23.4232    8.4996   37.3266 C.ar    1  UNL1        0.1427
      8 O          23.5404    9.4624   37.8937 O.2     1  UNL1       -0.4545
      9 C          23.3678   10.7845   39.9689 C.ar    1  UNL1       -0.0186
     10 C          22.4358    9.7531   41.9397 C.ar    1  UNL1       -0.0609
     11 C          23.8617    8.7019   35.9050 C.ar    1  UNL1        0.0588
     12 C          22.9959   10.8603   41.3085 C.ar    1  UNL1       -0.0582
     13 C          25.2277    8.7385   35.5561 C.ar    1  UNL1        0.1275
     14 C          22.8962    8.9155   34.9054 C.ar    1  UNL1       -0.0476
     15 O          26.2035    8.5288   36.4866 O.3     1  UNL1       -0.5061
     16 C          25.6027    8.9987   34.2386 C.ar    1  UNL1       -0.0195
     17 C          23.2871    9.1653   33.5915 C.ar    1  UNL1       -0.0609
     18 C          24.6374    9.2122   33.2588 C.ar    1  UNL1       -0.0583
     19 H          22.9318    6.6509   36.9454 H       1  UNL1        0.0693
     20 H          21.8103    7.7024   41.7275 H       1  UNL1        0.0626
     21 H          23.8070   11.6478   39.4756 H       1  UNL1        0.0654
     22 H          22.1429    9.8138   42.9853 H       1  UNL1        0.0618
     23 H          23.1428   11.7845   41.8615 H       1  UNL1        0.0619
     24 H          21.8370    8.8930   35.1498 H       1  UNL1        0.0626
     25 H          25.8249    8.6700   37.3752 H       1  UNL1        0.2922
     26 H          26.6567    9.0348   33.9723 H       1  UNL1        0.0654
     27 H          22.5341    9.3313   32.8246 H       1  UNL1        0.0618
     28 H          24.9392    9.4146   32.2340 H       1  UNL1        0.0619
@<TRIPOS>BOND
     1     1     2    2
     2     2     3   ar
     3     2     4   ar
     4     3     5   ar
     5     3     6   ar
     6     4     7   ar
     7     5     8   ar
     8     5     9   ar
     9     6    10   ar
    10     7    11    1
    11     9    12   ar
    12    11    13   ar
    13    11    14   ar
    14    13    15    1
    15    13    16   ar
    16    14    17   ar
    17    16    18   ar
    18     7     8   ar
    19    10    12   ar
    20    17    18   ar
    21     4    19    1
    22     6    20    1
    23     9    21    1
    24    10    22    1
    25    12    23    1
    26    14    24    1
    27    15    25    1
    28    16    26    1
    29    17    27    1
    30    18    28    1
@<TRIPOS>SUBSTRUCTURE
     1 UNL1        1 TEMP              0 ****  ****    0 ROOT


##########                                Name:                  22
##########                DOCK_Rotatable_Bonds:                   2
##########                         Heavy_Atoms:                  18
##########                    Molecular_Weight:             238.243
##########                       Formal_Charge:         5.96046e-08
##########                     HBond_Acceptors:                   3
##########                        HBond_Donors:                   1
##########                    Continuous_Score:          -27.478540
##########               Continuous_vdw_energy:          -26.040949
##########                Continuous_es_energy:           -1.437592
##########           Internal_energy_repulsive:            2.541380

@<TRIPOS>MOLECULE
22
 28 30 1 0 0
SMALL
GASTEIGER


@<TRIPOS>ATOM
      1 O          26.6255    8.6180   35.5947 O.2     1  UNL1       -0.2870
      2 C          25.4359    8.6040   35.8441 C.ar    1  UNL1        0.1931
      3 C          24.3799    8.5030   34.8257 C.ar    1  UNL1        0.0640
      4 C          24.8806    8.6828   37.2174 C.ar    1  UNL1        0.0288
      5 C          23.0889    8.5063   35.3122 C.ar    1  UNL1        0.1392
      6 C          24.5722    8.4005   33.3987 C.ar    1  UNL1       -0.0474
      7 C          23.7691    8.6633   37.3908 C.ar    1  UNL1        0.1427
      8 O          22.8987    8.6098   36.6823 O.2     1  UNL1       -0.4545
      9 C          21.9734    8.3931   34.4061 C.ar    1  UNL1       -0.0186
     10 C          23.4876    8.2948   32.5316 C.ar    1  UNL1       -0.0609
     11 C          23.2600    8.8064   38.7959 C.ar    1  UNL1        0.0588
     12 C          22.1895    8.2891   33.0347 C.ar    1  UNL1       -0.0582
     13 C          22.4643    7.8074   39.3941 C.ar    1  UNL1        0.1275
     14 C          23.5322    9.9835   39.5154 C.ar    1  UNL1       -0.0476
     15 O          22.1782    6.6433   38.7420 O.3     1  UNL1       -0.5061
     16 C          21.9487    8.0025   40.6748 C.ar    1  UNL1       -0.0195
     17 C          23.0168   10.1592   40.7980 C.ar    1  UNL1       -0.0609
     18 C          22.2223    9.1736   41.3752 C.ar    1  UNL1       -0.0583
     19 H          25.6142    8.7640   38.0152 H       1  UNL1        0.0693
     20 H          25.5864    8.4070   33.0048 H       1  UNL1        0.0626
     21 H          20.9604    8.3868   34.8002 H       1  UNL1        0.0654
     22 H          23.6556    8.2165   31.4600 H       1  UNL1        0.0618
     23 H          21.3443    8.2037   32.3565 H       1  UNL1        0.0619
     24 H          24.1425   10.7685   39.0754 H       1  UNL1        0.0626
     25 H          22.7823    6.5541   37.9802 H       1  UNL1        0.2922
     26 H          21.3283    7.2346   41.1317 H       1  UNL1        0.0654
     27 H          23.2307   11.0733   41.3471 H       1  UNL1        0.0618
     28 H          21.8157    9.3171   42.3734 H       1  UNL1        0.0619
@<TRIPOS>BOND
     1     1     2    2
     2     2     3   ar
     3     2     4   ar
     4     3     5   ar
     5     3     6   ar
     6     4     7   ar
     7     5     8   ar
     8     5     9   ar
     9     6    10   ar
    10     7    11    1
    11     9    12   ar
    12    11    13   ar
    13    11    14   ar
    14    13    15    1
    15    13    16   ar
    16    14    17   ar
    17    16    18   ar
    18     7     8   ar
    19    10    12   ar
    20    17    18   ar
    21     4    19    1
    22     6    20    1
    23     9    21    1
    24    10    22    1
    25    12    23    1
    26    14    24    1
    27    15    25    1
    28    16    26    1
    29    17    27    1
    30    18    28    1
@<TRIPOS>SUBSTRUCTURE
     1 UNL1        1 TEMP              0 ****  ****    0 ROOT


##########                                Name:                  22
##########                DOCK_Rotatable_Bonds:                   2
##########                         Heavy_Atoms:                  18
##########                    Molecular_Weight:             238.243
##########                       Formal_Charge:         5.96046e-08
##########                     HBond_Acceptors:                   3
##########                        HBond_Donors:                   1
##########                    Continuous_Score:          -27.457563
##########               Continuous_vdw_energy:          -24.715784
##########                Continuous_es_energy:           -2.741779
##########           Internal_energy_repulsive:            1.544005

@<TRIPOS>MOLECULE
22
 28 30 1 0 0
SMALL
GASTEIGER


@<TRIPOS>ATOM
      1 O          21.8436    6.4248   38.7033 O.2     1  UNL1       -0.2870
      2 C          22.4775    7.4620   38.6915 C.ar    1  UNL1        0.1931
      3 C          22.5522    8.3968   39.8243 C.ar    1  UNL1        0.0640
      4 C          23.2712    7.9296   37.5289 C.ar    1  UNL1        0.0288
      5 C          23.3224    9.5214   39.6110 C.ar    1  UNL1        0.1392
      6 C          21.9085    8.2424   41.1070 C.ar    1  UNL1       -0.0474
      7 C          23.8417    8.8985   37.5739 C.ar    1  UNL1        0.1427
      8 O          23.9389    9.6769   38.3782 O.2     1  UNL1       -0.4545
      9 C          23.4829   10.4984   40.6588 C.ar    1  UNL1       -0.0186
     10 C          22.0672    9.1938   42.1117 C.ar    1  UNL1       -0.0609
     11 C          24.5796    9.3534   36.3480 C.ar    1  UNL1        0.0588
     12 C          22.8551   10.3197   41.8886 C.ar    1  UNL1       -0.0582
     13 C          25.9112    8.9583   36.1037 C.ar    1  UNL1        0.1275
     14 C          23.9542   10.2365   35.4502 C.ar    1  UNL1       -0.0476
     15 O          26.5603    8.0966   36.9393 O.3     1  UNL1       -0.5061
     16 C          26.5917    9.4551   34.9927 C.ar    1  UNL1       -0.0195
     17 C          24.6451   10.7169   34.3395 C.ar    1  UNL1       -0.0609
     18 C          25.9628   10.3316   34.1132 C.ar    1  UNL1       -0.0583
     19 H          23.2513    7.2813   36.6569 H       1  UNL1        0.0693
     20 H          21.2911    7.3637   41.2811 H       1  UNL1        0.0626
     21 H          24.0999   11.3761   40.4843 H       1  UNL1        0.0654
     22 H          21.5749    9.0562   43.0714 H       1  UNL1        0.0618
     23 H          22.9802   11.0598   42.6749 H       1  UNL1        0.0619
     24 H          22.9286   10.5563   35.6175 H       1  UNL1        0.0626
     25 H          26.0904    8.0756   37.7946 H       1  UNL1        0.2922
     26 H          27.6215    9.1560   34.8098 H       1  UNL1        0.0654
     27 H          24.1547   11.4010   33.6509 H       1  UNL1        0.0618
     28 H          26.5015   10.7140   33.2497 H       1  UNL1        0.0619
@<TRIPOS>BOND
     1     1     2    2
     2     2     3   ar
     3     2     4   ar
     4     3     5   ar
     5     3     6   ar
     6     4     7   ar
     7     5     8   ar
     8     5     9   ar
     9     6    10   ar
    10     7    11    1
    11     9    12   ar
    12    11    13   ar
    13    11    14   ar
    14    13    15    1
    15    13    16   ar
    16    14    17   ar
    17    16    18   ar
    18     7     8   ar
    19    10    12   ar
    20    17    18   ar
    21     4    19    1
    22     6    20    1
    23     9    21    1
    24    10    22    1
    25    12    23    1
    26    14    24    1
    27    15    25    1
    28    16    26    1
    29    17    27    1
    30    18    28    1
@<TRIPOS>SUBSTRUCTURE
     1 UNL1        1 TEMP              0 ****  ****    0 ROOT


##########                                Name:                  23
##########                DOCK_Rotatable_Bonds:                   2
##########                         Heavy_Atoms:                   8
##########                    Molecular_Weight:             110.112
##########                       Formal_Charge:                   0
##########                     HBond_Acceptors:                   2
##########                        HBond_Donors:                   2
##########                    Continuous_Score:          -19.408417
##########               Continuous_vdw_energy:          -17.772671
##########                Continuous_es_energy:           -1.635746
##########           Internal_energy_repulsive:            0.081126

@<TRIPOS>MOLECULE
23
 14 14 1 0 0
SMALL
GASTEIGER


@<TRIPOS>ATOM
      1 O          21.3317    7.5590   42.4835 O.3     1  UNL1       -0.5068
      2 C          21.9657    8.3278   41.5555 C.ar    1  UNL1        0.1171
      3 C          22.4464    9.5913   41.8999 C.ar    1  UNL1       -0.0167
      4 C          22.1342    7.8465   40.2582 C.ar    1  UNL1       -0.0167
      5 C          23.0980   10.3714   40.9468 C.ar    1  UNL1       -0.0167
      6 C          22.7857    8.6266   39.3053 C.ar    1  UNL1       -0.0167
      7 C          23.2684    9.8882   39.6494 C.ar    1  UNL1        0.1171
      8 O          23.9077   10.6448   38.7150 O.3     1  UNL1       -0.5068
      9 H          21.1107    6.6923   42.0997 H       1  UNL1        0.2921
     10 H          22.3164    9.9724   42.9098 H       1  UNL1        0.0655
     11 H          21.7596    6.8622   39.9879 H       1  UNL1        0.0655
     12 H          23.4711   11.3553   41.2206 H       1  UNL1        0.0655
     13 H          22.9175    8.2489   38.2942 H       1  UNL1        0.0655
     14 H          23.8685   10.2023   37.8490 H       1  UNL1        0.2921
@<TRIPOS>BOND
     1     1     2    1
     2     2     3   ar
     3     2     4   ar
     4     3     5   ar
     5     4     6   ar
     6     5     7   ar
     7     7     8    1
     8     6     7   ar
     9     1     9    1
    10     3    10    1
    11     4    11    1
    12     5    12    1
    13     6    13    1
    14     8    14    1
@<TRIPOS>SUBSTRUCTURE
     1 UNL1        1 TEMP              0 ****  ****    0 ROOT


##########                                Name:                  23
##########                DOCK_Rotatable_Bonds:                   2
##########                         Heavy_Atoms:                   8
##########                    Molecular_Weight:             110.112
##########                       Formal_Charge:                   0
##########                     HBond_Acceptors:                   2
##########                        HBond_Donors:                   2
##########                    Continuous_Score:          -19.487911
##########               Continuous_vdw_energy:          -17.700949
##########                Continuous_es_energy:           -1.786962
##########           Internal_energy_repulsive:            0.081123

@<TRIPOS>MOLECULE
23
 14 14 1 0 0
SMALL
GASTEIGER


@<TRIPOS>ATOM
      1 O          21.2269    7.5137   42.6000 O.3     1  UNL1       -0.5068
      2 C          21.8893    8.2899   41.6984 C.ar    1  UNL1        0.1171
      3 C          22.0768    7.8428   40.3903 C.ar    1  UNL1       -0.0167
      4 C          22.3792    9.5356   42.0874 C.ar    1  UNL1       -0.0167
      5 C          22.7521    8.6436   39.4714 C.ar    1  UNL1       -0.0167
      6 C          23.0543   10.3362   41.1686 C.ar    1  UNL1       -0.0167
      7 C          23.2399    9.8911   39.8607 C.ar    1  UNL1        0.1171
      8 O          23.8973   10.6795   38.9658 O.3     1  UNL1       -0.5068
      9 H          21.0371    6.6424   42.2098 H       1  UNL1        0.2921
     10 H          21.6984    6.8714   40.0819 H       1  UNL1        0.0655
     11 H          22.2344    9.8852   43.1068 H       1  UNL1        0.0655
     12 H          22.8951    8.2906   38.4530 H       1  UNL1        0.0655
     13 H          23.4343   11.3083   41.4735 H       1  UNL1        0.0655
     14 H          23.9332   10.2366   38.0999 H       1  UNL1        0.2921
@<TRIPOS>BOND
     1     1     2    1
     2     2     3   ar
     3     2     4   ar
     4     3     5   ar
     5     4     6   ar
     6     5     7   ar
     7     7     8    1
     8     6     7   ar
     9     1     9    1
    10     3    10    1
    11     4    11    1
    12     5    12    1
    13     6    13    1
    14     8    14    1
@<TRIPOS>SUBSTRUCTURE
     1 UNL1        1 TEMP              0 ****  ****    0 ROOT


##########                                Name:                  23
##########                DOCK_Rotatable_Bonds:                   2
##########                         Heavy_Atoms:                   8
##########                    Molecular_Weight:             110.112
##########                       Formal_Charge:                   0
##########                     HBond_Acceptors:                   2
##########                        HBond_Donors:                   2
##########                    Continuous_Score:          -19.477291
##########               Continuous_vdw_energy:          -17.932051
##########                Continuous_es_energy:           -1.545241
##########           Internal_energy_repulsive:            0.081126

@<TRIPOS>MOLECULE
23
 14 14 1 0 0
SMALL
GASTEIGER


@<TRIPOS>ATOM
      1 O          21.2754    7.5180   42.5539 O.3     1  UNL1       -0.5068
      2 C          21.9038    8.3479   41.6761 C.ar    1  UNL1        0.1171
      3 C          22.0979    7.9533   40.3523 C.ar    1  UNL1       -0.0167
      4 C          22.3519    9.5961   42.1055 C.ar    1  UNL1       -0.0167
      5 C          22.7380    8.8089   39.4579 C.ar    1  UNL1       -0.0167
      6 C          22.9919   10.4516   41.2112 C.ar    1  UNL1       -0.0167
      7 C          23.1840   10.0588   39.8876 C.ar    1  UNL1        0.1171
      8 O          23.8069   10.9005   39.0170 O.3     1  UNL1       -0.5068
      9 H          21.1139    6.6545   42.1348 H       1  UNL1        0.2921
     10 H          21.7520    6.9803   40.0123 H       1  UNL1        0.0655
     11 H          22.2018    9.9049   43.1371 H       1  UNL1        0.0655
     12 H          22.8865    8.4966   38.4271 H       1  UNL1        0.0655
     13 H          23.3394   11.4254   41.5476 H       1  UNL1        0.0655
     14 H          24.0009   11.7465   39.4574 H       1  UNL1        0.2921
@<TRIPOS>BOND
     1     1     2    1
     2     2     3   ar
     3     2     4   ar
     4     3     5   ar
     5     4     6   ar
     6     5     7   ar
     7     7     8    1
     8     6     7   ar
     9     1     9    1
    10     3    10    1
    11     4    11    1
    12     5    12    1
    13     6    13    1
    14     8    14    1
@<TRIPOS>SUBSTRUCTURE
     1 UNL1        1 TEMP              0 ****  ****    0 ROOT


##########                                Name:                  24
##########                DOCK_Rotatable_Bonds:                   1
##########                         Heavy_Atoms:                  17
##########                    Molecular_Weight:             246.338
##########                       Formal_Charge:                   0
##########                     HBond_Acceptors:                   4
##########                        HBond_Donors:                   0
##########                    Continuous_Score:          -28.430534
##########               Continuous_vdw_energy:          -28.430534
##########                Continuous_es_energy:            0.000000
##########           Internal_energy_repulsive:            6.418683

@<TRIPOS>MOLECULE
24
 31 32 1 0 0
SMALL
GASTEIGER


@<TRIPOS>ATOM
      1 SI         23.4417    7.9812   36.7912 Si      1  UNL1        0.0000
      2 O          23.5221    8.5844   37.7501 O.2     1  UNL1        0.0000
      3 C          24.0141    7.0177   37.0988 C.3     1  UNL1        0.0000
      4 C          23.9865    8.6873   36.0456 C.3     1  UNL1        0.0000
      5 C          22.2895    7.8817   36.6703 C.3     1  UNL1        0.0000
      6 C          23.3257    9.4055   38.8510 C.2     1  UNL1        0.0000
      7 C          23.6839   10.8285   38.7631 C.2     1  UNL1        0.0000
      8 C          22.8468    8.8372   40.0058 C.2     1  UNL1        0.0000
      9 O          24.1032   11.3323   37.7389 O.2     1  UNL1        0.0000
     10 C          23.5276   11.6298   40.0257 C.ar    1  UNL1        0.0000
     11 C          22.6710    9.5920   41.2471 C.2     1  UNL1        0.0000
     12 C          23.0518   11.0399   41.2076 C.ar    1  UNL1        0.0000
     13 C          23.8714   12.9872   40.0297 C.ar    1  UNL1        0.0000
     14 O          22.2554    9.0671   42.2616 O.2     1  UNL1        0.0000
     15 C          22.9403   11.8129   42.3697 C.ar    1  UNL1        0.0000
     16 C          23.7570   13.7470   41.1912 C.ar    1  UNL1        0.0000
     17 C          23.2947   13.1586   42.3631 C.ar    1  UNL1        0.0000
     18 H          25.0884    7.0418   37.3584 H       1  UNL1        0.0000
     19 H          24.0264    6.3134   36.2481 H       1  UNL1        0.0000
     20 H          23.6367    6.3586   37.9020 H       1  UNL1        0.0000
     21 H          25.0572    8.9362   36.1652 H       1  UNL1        0.0000
     22 H          23.5823    9.6884   35.8085 H       1  UNL1        0.0000
     23 H          23.9930    8.2298   35.0412 H       1  UNL1        0.0000
     24 H          21.6849    7.3453   37.4247 H       1  UNL1        0.0000
     25 H          22.0491    7.3052   35.7614 H       1  UNL1        0.0000
     26 H          21.6582    8.7766   36.5192 H       1  UNL1        0.0000
     27 H          22.5907    7.7836   40.0571 H       1  UNL1        0.0000
     28 H          24.2385   13.4663   39.1253 H       1  UNL1        0.0000
     29 H          22.5819   11.3692   43.2952 H       1  UNL1        0.0000
     30 H          24.0333   14.7983   41.1841 H       1  UNL1        0.0000
     31 H          23.2101   13.7476   43.2730 H       1  UNL1        0.0000
@<TRIPOS>BOND
     1     1     2    1
     2     1     3    1
     3     1     4    1
     4     1     5    1
     5     2     6    1
     6     6     7    1
     7     6     8    2
     8     7     9    2
     9     7    10    1
    10     8    11    1
    11    10    12   ar
    12    10    13   ar
    13    11    14    2
    14    12    15   ar
    15    13    16   ar
    16    15    17   ar
    17    11    12    1
    18    16    17   ar
    19     3    18    1
    20     3    19    1
    21     3    20    1
    22     4    21    1
    23     4    22    1
    24     4    23    1
    25     5    24    1
    26     5    25    1
    27     5    26    1
    28     8    27    1
    29    13    28    1
    30    15    29    1
    31    16    30    1
    32    17    31    1
@<TRIPOS>SUBSTRUCTURE
     1 UNL1        1 TEMP              0 ****  ****    0 ROOT


##########                                Name:                  24
##########                DOCK_Rotatable_Bonds:                   1
##########                         Heavy_Atoms:                  17
##########                    Molecular_Weight:             246.338
##########                       Formal_Charge:                   0
##########                     HBond_Acceptors:                   4
##########                        HBond_Donors:                   0
##########                    Continuous_Score:          -29.410889
##########               Continuous_vdw_energy:          -29.410889
##########                Continuous_es_energy:            0.000000
##########           Internal_energy_repulsive:           11.407023

@<TRIPOS>MOLECULE
24
 31 32 1 0 0
SMALL
GASTEIGER


@<TRIPOS>ATOM
      1 SI         23.2268    7.9390   37.2043 Si      1  UNL1        0.0000
      2 O          23.0847    8.4575   38.2046 O.2     1  UNL1        0.0000
      3 C          22.3589    7.1672   37.2407 C.3     1  UNL1        0.0000
      4 C          24.3005    7.5123   37.3329 C.3     1  UNL1        0.0000
      5 C          23.1015    8.8233   36.4596 C.3     1  UNL1        0.0000
      6 C          22.9877    9.3484   39.2636 C.2     1  UNL1        0.0000
      7 C          23.4684   10.7271   39.0934 C.2     1  UNL1        0.0000
      8 C          22.4875    8.8855   40.4559 C.2     1  UNL1        0.0000
      9 O          23.9066   11.1379   38.0360 O.2     1  UNL1        0.0000
     10 C          23.4132   11.6032   40.3141 C.ar    1  UNL1        0.0000
     11 C          22.4084    9.7161   41.6582 C.2     1  UNL1        0.0000
     12 C          22.9149   11.1199   41.5344 C.ar    1  UNL1        0.0000
     13 C          23.8758   12.9226   40.2392 C.ar    1  UNL1        0.0000
     14 O          21.9718    9.2833   42.7069 O.2     1  UNL1        0.0000
     15 C          22.8993   11.9586   42.6555 C.ar    1  UNL1        0.0000
     16 C          23.8563   13.7484   41.3605 C.ar    1  UNL1        0.0000
     17 C          23.3712   13.2651   42.5705 C.ar    1  UNL1        0.0000
     18 H          22.3298    6.3656   38.0017 H       1  UNL1        0.0000
     19 H          22.3652    6.5670   36.3136 H       1  UNL1        0.0000
     20 H          21.3028    7.4929   37.2640 H       1  UNL1        0.0000
     21 H          24.5317    6.7579   38.1074 H       1  UNL1        0.0000
     22 H          25.1707    8.1832   37.4528 H       1  UNL1        0.0000
     23 H          24.5923    6.9653   36.4197 H       1  UNL1        0.0000
     24 H          22.1452    9.3736   36.3897 H       1  UNL1        0.0000
     25 H          23.2146    8.4678   35.4218 H       1  UNL1        0.0000
     26 H          23.8110    9.6712   36.4652 H       1  UNL1        0.0000
     27 H          22.1404    7.8632   40.5681 H       1  UNL1        0.0000
     28 H          24.2626   13.3198   39.3038 H       1  UNL1        0.0000
     29 H          22.5248   11.5971   43.6099 H       1  UNL1        0.0000
     30 H          24.2244   14.7690   41.2921 H       1  UNL1        0.0000
     31 H          23.3605   13.9052   43.4491 H       1  UNL1        0.0000
@<TRIPOS>BOND
     1     1     2    1
     2     1     3    1
     3     1     4    1
     4     1     5    1
     5     2     6    1
     6     6     7    1
     7     6     8    2
     8     7     9    2
     9     7    10    1
    10     8    11    1
    11    10    12   ar
    12    10    13   ar
    13    11    14    2
    14    12    15   ar
    15    13    16   ar
    16    15    17   ar
    17    11    12    1
    18    16    17   ar
    19     3    18    1
    20     3    19    1
    21     3    20    1
    22     4    21    1
    23     4    22    1
    24     4    23    1
    25     5    24    1
    26     5    25    1
    27     5    26    1
    28     8    27    1
    29    13    28    1
    30    15    29    1
    31    16    30    1
    32    17    31    1
@<TRIPOS>SUBSTRUCTURE
     1 UNL1        1 TEMP              0 ****  ****    0 ROOT


##########                                Name:                  24
##########                DOCK_Rotatable_Bonds:                   1
##########                         Heavy_Atoms:                  17
##########                    Molecular_Weight:             246.338
##########                       Formal_Charge:                   0
##########                     HBond_Acceptors:                   4
##########                        HBond_Donors:                   0
##########                    Continuous_Score:          -27.986622
##########               Continuous_vdw_energy:          -27.986622
##########                Continuous_es_energy:            0.000000
##########           Internal_energy_repulsive:           12.101407

@<TRIPOS>MOLECULE
24
 31 32 1 0 0
SMALL
GASTEIGER


@<TRIPOS>ATOM
      1 SI         22.8396   13.6239   42.2606 Si      1  UNL1        0.0000
      2 O          22.7876   12.5365   41.9373 O.2     1  UNL1        0.0000
      3 C          23.2407   13.5036   43.3447 C.3     1  UNL1        0.0000
      4 C          21.7241   13.9338   42.1562 C.3     1  UNL1        0.0000
      5 C          23.5804   14.0671   41.4815 C.3     1  UNL1        0.0000
      6 C          22.8251   11.3221   41.2678 C.2     1  UNL1        0.0000
      7 C          23.2432   11.2875   39.8588 C.2     1  UNL1        0.0000
      8 C          22.4171   10.1975   41.9420 C.2     1  UNL1        0.0000
      9 O          23.6092   12.2827   39.2636 O.2     1  UNL1        0.0000
     10 C          23.1689    9.9485   39.1789 C.ar    1  UNL1        0.0000
     11 C          22.3459    8.8782   41.3130 C.2     1  UNL1        0.0000
     12 C          22.7365    8.8050   39.8691 C.ar    1  UNL1        0.0000
     13 C          23.5270    9.8378   37.8297 C.ar    1  UNL1        0.0000
     14 O          21.9717    7.8970   41.9252 O.2     1  UNL1        0.0000
     15 C          22.6596    7.5794   39.1965 C.ar    1  UNL1        0.0000
     16 C          23.4464    8.6141   37.1700 C.ar    1  UNL1        0.0000
     17 C          23.0088    7.4846   37.8527 C.ar    1  UNL1        0.0000
     18 H          22.6557   12.9789   44.1224 H       1  UNL1        0.0000
     19 H          23.3455   14.5009   43.8077 H       1  UNL1        0.0000
     20 H          24.2437   13.0825   43.5413 H       1  UNL1        0.0000
     21 H          20.9357   13.4653   42.7738 H       1  UNL1        0.0000
     22 H          21.2215   13.9341   41.1718 H       1  UNL1        0.0000
     23 H          21.6067   14.9933   42.4423 H       1  UNL1        0.0000
     24 H          24.6255   13.7104   41.4269 H       1  UNL1        0.0000
     25 H          23.7362   15.1423   41.6709 H       1  UNL1        0.0000
     26 H          23.3262   14.0824   40.4056 H       1  UNL1        0.0000
     27 H          22.1066   10.2392   42.9814 H       1  UNL1        0.0000
     28 H          23.8684   10.7091   37.2759 H       1  UNL1        0.0000
     29 H          22.3185    6.6863   39.7143 H       1  UNL1        0.0000
     30 H          23.7205    8.5415   36.1206 H       1  UNL1        0.0000
     31 H          22.9388    6.5292   37.3389 H       1  UNL1        0.0000
@<TRIPOS>BOND
     1     1     2    1
     2     1     3    1
     3     1     4    1
     4     1     5    1
     5     2     6    1
     6     6     7    1
     7     6     8    2
     8     7     9    2
     9     7    10    1
    10     8    11    1
    11    10    12   ar
    12    10    13   ar
    13    11    14    2
    14    12    15   ar
    15    13    16   ar
    16    15    17   ar
    17    11    12    1
    18    16    17   ar
    19     3    18    1
    20     3    19    1
    21     3    20    1
    22     4    21    1
    23     4    22    1
    24     4    23    1
    25     5    24    1
    26     5    25    1
    27     5    26    1
    28     8    27    1
    29    13    28    1
    30    15    29    1
    31    16    30    1
    32    17    31    1
@<TRIPOS>SUBSTRUCTURE
     1 UNL1        1 TEMP              0 ****  ****    0 ROOT


##########                                Name:                  25
##########                DOCK_Rotatable_Bonds:                   3
##########                         Heavy_Atoms:                  11
##########                    Molecular_Weight:              152.15
##########                       Formal_Charge:        -0.000100017
##########                     HBond_Acceptors:                   3
##########                        HBond_Donors:                   1
##########                    Continuous_Score:          -23.536606
##########               Continuous_vdw_energy:          -23.338837
##########                Continuous_es_energy:           -0.197769
##########           Internal_energy_repulsive:            2.141013

@<TRIPOS>MOLECULE
25
 19 19 1 0 0
SMALL
GASTEIGER


@<TRIPOS>ATOM
      1 O          21.9490    6.7582   38.5406 O.2     1  UNL1       -0.2450
      2 C          22.4310    7.8752   38.5111 C.2     1  UNL1        0.3389
      3 O          22.8609    8.4552   37.3660 O.3     1  UNL1       -0.4645
      4 C          22.5652    8.7192   39.7476 C.ar    1  UNL1        0.0592
      5 C          22.5926    7.8061   36.0997 C.3     1  UNL1        0.0820
      6 C          23.1728    9.9773   39.6719 C.ar    1  UNL1       -0.0443
      7 C          22.0877    8.2703   40.9846 C.ar    1  UNL1       -0.0443
      8 C          23.3058   10.7695   40.8115 C.ar    1  UNL1       -0.0194
      9 C          22.2129    9.0662   42.1215 C.ar    1  UNL1       -0.0194
     10 C          22.8239   10.3156   42.0366 C.ar    1  UNL1        0.1169
     11 O          22.9466   11.0855   43.1541 O.3     1  UNL1       -0.5068
     12 H          22.8734    8.4828   35.2887 H       1  UNL1        0.0661
     13 H          21.5274    7.5684   36.0234 H       1  UNL1        0.0661
     14 H          23.1834    6.8882   36.0337 H       1  UNL1        0.0661
     15 H          23.5546   10.3448   38.7230 H       1  UNL1        0.0627
     16 H          21.6058    7.3004   41.0722 H       1  UNL1        0.0627
     17 H          23.7872   11.7414   40.7363 H       1  UNL1        0.0654
     18 H          21.8314    8.7098   43.0755 H       1  UNL1        0.0654
     19 H          22.5631   10.6251   43.9219 H       1  UNL1        0.2921
@<TRIPOS>BOND
     1     1     2    2
     2     2     3    1
     3     2     4    1
     4     3     5    1
     5     4     6   ar
     6     4     7   ar
     7     6     8   ar
     8     7     9   ar
     9     8    10   ar
    10    10    11    1
    11     9    10   ar
    12     5    12    1
    13     5    13    1
    14     5    14    1
    15     6    15    1
    16     7    16    1
    17     8    17    1
    18     9    18    1
    19    11    19    1
@<TRIPOS>SUBSTRUCTURE
     1 UNL1        1 TEMP              0 ****  ****    0 ROOT


##########                                Name:                  25
##########                DOCK_Rotatable_Bonds:                   3
##########                         Heavy_Atoms:                  11
##########                    Molecular_Weight:              152.15
##########                       Formal_Charge:        -0.000100017
##########                     HBond_Acceptors:                   3
##########                        HBond_Donors:                   1
##########                    Continuous_Score:          -23.261292
##########               Continuous_vdw_energy:          -22.980024
##########                Continuous_es_energy:           -0.281267
##########           Internal_energy_repulsive:            2.050514

@<TRIPOS>MOLECULE
25
 19 19 1 0 0
SMALL
GASTEIGER


@<TRIPOS>ATOM
      1 O          21.6640    6.8095   38.4276 O.2     1  UNL1       -0.2450
      2 C          22.3525    7.8129   38.4386 C.2     1  UNL1        0.3389
      3 O          23.0052    8.2630   37.3414 O.3     1  UNL1       -0.4645
      4 C          22.5145    8.6557   39.6724 C.ar    1  UNL1        0.0592
      5 C          22.8378    7.5669   36.0828 C.3     1  UNL1        0.0820
      6 C          21.9417    8.2429   40.8805 C.ar    1  UNL1       -0.0443
      7 C          23.2360    9.8550   39.6392 C.ar    1  UNL1       -0.0443
      8 C          22.0824    9.0162   42.0321 C.ar    1  UNL1       -0.0194
      9 C          23.3837   10.6231   40.7926 C.ar    1  UNL1       -0.0194
     10 C          22.8053   10.2056   41.9896 C.ar    1  UNL1        0.1169
     11 O          22.9505   10.9648   43.1116 O.3     1  UNL1       -0.5068
     12 H          23.3096    8.1519   35.2894 H       1  UNL1        0.0661
     13 H          21.7724    7.4485   35.8638 H       1  UNL1        0.0661
     14 H          23.3145    6.5849   36.1486 H       1  UNL1        0.0661
     15 H          21.3737    7.3176   40.9291 H       1  UNL1        0.0627
     16 H          23.6971   10.1974   38.7171 H       1  UNL1        0.0627
     17 H          21.6244    8.6843   42.9606 H       1  UNL1        0.0654
     18 H          23.9528   11.5490   40.7561 H       1  UNL1        0.0654
     19 H          23.3470   11.8251   42.8850 H       1  UNL1        0.2921
@<TRIPOS>BOND
     1     1     2    2
     2     2     3    1
     3     2     4    1
     4     3     5    1
     5     4     6   ar
     6     4     7   ar
     7     6     8   ar
     8     7     9   ar
     9     8    10   ar
    10    10    11    1
    11     9    10   ar
    12     5    12    1
    13     5    13    1
    14     5    14    1
    15     6    15    1
    16     7    16    1
    17     8    17    1
    18     9    18    1
    19    11    19    1
@<TRIPOS>SUBSTRUCTURE
     1 UNL1        1 TEMP              0 ****  ****    0 ROOT


##########                                Name:                  25
##########                DOCK_Rotatable_Bonds:                   3
##########                         Heavy_Atoms:                  11
##########                    Molecular_Weight:              152.15
##########                       Formal_Charge:        -0.000100017
##########                     HBond_Acceptors:                   3
##########                        HBond_Donors:                   1
##########                    Continuous_Score:          -22.739317
##########               Continuous_vdw_energy:          -22.566946
##########                Continuous_es_energy:           -0.172370
##########           Internal_energy_repulsive:            1.826224

@<TRIPOS>MOLECULE
25
 19 19 1 0 0
SMALL
GASTEIGER


@<TRIPOS>ATOM
      1 O          23.0496   12.6235   41.2060 O.2     1  UNL1       -0.2450
      2 C          22.8929   11.5932   41.8344 C.2     1  UNL1        0.3389
      3 O          22.8906   11.5562   43.1876 O.3     1  UNL1       -0.4645
      4 C          22.6609   10.2723   41.1560 C.ar    1  UNL1        0.0592
      5 C          23.0749   12.7860   43.9296 C.3     1  UNL1        0.0820
      6 C          22.0779    9.2159   41.8646 C.ar    1  UNL1       -0.0443
      7 C          23.0161   10.0754   39.8163 C.ar    1  UNL1       -0.0443
      8 C          21.8590    7.9846   41.2481 C.ar    1  UNL1       -0.0194
      9 C          22.7891    8.8474   39.1980 C.ar    1  UNL1       -0.0194
     10 C          22.2123    7.8001   39.9138 C.ar    1  UNL1        0.1169
     11 O          21.9981    6.6011   39.3031 O.3     1  UNL1       -0.5068
     12 H          22.8939   12.5901   44.9896 H       1  UNL1        0.0661
     13 H          22.3698   13.5428   43.5734 H       1  UNL1        0.0661
     14 H          24.1004   13.1395   43.7911 H       1  UNL1        0.0661
     15 H          21.7977    9.3444   42.9068 H       1  UNL1        0.0627
     16 H          23.4646   10.8794   39.2393 H       1  UNL1        0.0627
     17 H          21.4117    7.1722   41.8155 H       1  UNL1        0.0654
     18 H          23.0624    8.7088   38.1546 H       1  UNL1        0.0654
     19 H          21.5030    6.0072   39.8953 H       1  UNL1        0.2921
@<TRIPOS>BOND
     1     1     2    2
     2     2     3    1
     3     2     4    1
     4     3     5    1
     5     4     6   ar
     6     4     7   ar
     7     6     8   ar
     8     7     9   ar
     9     8    10   ar
    10    10    11    1
    11     9    10   ar
    12     5    12    1
    13     5    13    1
    14     5    14    1
    15     6    15    1
    16     7    16    1
    17     8    17    1
    18     9    18    1
    19    11    19    1
@<TRIPOS>SUBSTRUCTURE
     1 UNL1        1 TEMP              0 ****  ****    0 ROOT


##########                                Name:                  27
##########                DOCK_Rotatable_Bonds:                   3
##########                         Heavy_Atoms:                  10
##########                    Molecular_Weight:             138.123
##########                       Formal_Charge:         0.000200056
##########                     HBond_Acceptors:                   3
##########                        HBond_Donors:                   2
##########                    Continuous_Score:          -24.203487
##########               Continuous_vdw_energy:          -21.857830
##########                Continuous_es_energy:           -2.345657
##########           Internal_energy_repulsive:            2.141616

@<TRIPOS>MOLECULE
27
 16 16 1 0 0
SMALL
GASTEIGER


@<TRIPOS>ATOM
      1 O          23.4019    8.7172   37.1702 O.2     1  UNL1       -0.2451
      2 C          22.7617    8.1505   38.0322 C.2     1  UNL1        0.3369
      3 O          22.1162    7.0463   37.7807 O.3     1  UNL1       -0.4771
      4 C          22.6339    8.6532   39.4428 C.ar    1  UNL1        0.0623
      5 C          22.0360    7.8301   40.3988 C.ar    1  UNL1       -0.0062
      6 C          23.0953    9.9198   39.8325 C.ar    1  UNL1       -0.0475
      7 C          21.9056    8.2571   41.7175 C.ar    1  UNL1        0.1176
      8 C          22.9579   10.3469   41.1525 C.ar    1  UNL1       -0.0575
      9 O          21.3328    7.4335   42.6334 O.3     1  UNL1       -0.5067
     10 C          22.3636    9.5155   42.0976 C.ar    1  UNL1       -0.0201
     11 H          22.2783    6.8577   36.8432 H       1  UNL1        0.2954
     12 H          21.6725    6.8449   40.1156 H       1  UNL1        0.0662
     13 H          23.5629   10.5923   39.1184 H       1  UNL1        0.0626
     14 H          23.3162   11.3306   41.4461 H       1  UNL1        0.0619
     15 H          21.2173    6.5564   42.2270 H       1  UNL1        0.2921
     16 H          22.2597    9.8478   43.1281 H       1  UNL1        0.0654
@<TRIPOS>BOND
     1     1     2    2
     2     2     3    1
     3     2     4    1
     4     4     5   ar
     5     4     6   ar
     6     5     7   ar
     7     6     8   ar
     8     7     9    1
     9     7    10   ar
    10     8    10   ar
    11     3    11    1
    12     5    12    1
    13     6    13    1
    14     8    14    1
    15     9    15    1
    16    10    16    1
@<TRIPOS>SUBSTRUCTURE
     1 UNL1        1 TEMP              0 ****  ****    0 ROOT


##########                                Name:                  27
##########                DOCK_Rotatable_Bonds:                   3
##########                         Heavy_Atoms:                  10
##########                    Molecular_Weight:             138.123
##########                       Formal_Charge:         0.000200056
##########                     HBond_Acceptors:                   3
##########                        HBond_Donors:                   2
##########                    Continuous_Score:          -24.208080
##########               Continuous_vdw_energy:          -21.697348
##########                Continuous_es_energy:           -2.510733
##########           Internal_energy_repulsive:            2.129962

@<TRIPOS>MOLECULE
27
 16 16 1 0 0
SMALL
GASTEIGER


@<TRIPOS>ATOM
      1 O          23.3652    8.6552   37.1400 O.2     1  UNL1       -0.2451
      2 C          22.7277    8.0953   38.0083 C.2     1  UNL1        0.3369
      3 O          22.0816    6.9891   37.7676 O.3     1  UNL1       -0.4771
      4 C          22.6041    8.6093   39.4152 C.ar    1  UNL1        0.0623
      5 C          22.0167    7.7905   40.3813 C.ar    1  UNL1       -0.0062
      6 C          23.0592    9.8821   39.7916 C.ar    1  UNL1       -0.0475
      7 C          21.8906    8.2279   41.6972 C.ar    1  UNL1        0.1176
      8 C          22.9261   10.3196   41.1088 C.ar    1  UNL1       -0.0575
      9 O          21.3280    7.4084   42.6231 O.3     1  UNL1       -0.5067
     10 C          22.3422    9.4924   42.0640 C.ar    1  UNL1       -0.0201
     11 H          22.2581    6.7818   36.8367 H       1  UNL1        0.2954
     12 H          21.6581    6.8005   40.1086 H       1  UNL1        0.0662
     13 H          23.5187   10.5515   39.0695 H       1  UNL1        0.0626
     14 H          23.2795   11.3081   41.3920 H       1  UNL1        0.0619
     15 H          21.3182    6.5029   42.2654 H       1  UNL1        0.2921
     16 H          22.2417    9.8330   43.0923 H       1  UNL1        0.0654
@<TRIPOS>BOND
     1     1     2    2
     2     2     3    1
     3     2     4    1
     4     4     5   ar
     5     4     6   ar
     6     5     7   ar
     7     6     8   ar
     8     7     9    1
     9     7    10   ar
    10     8    10   ar
    11     3    11    1
    12     5    12    1
    13     6    13    1
    14     8    14    1
    15     9    15    1
    16    10    16    1
@<TRIPOS>SUBSTRUCTURE
     1 UNL1        1 TEMP              0 ****  ****    0 ROOT


##########                                Name:                  27
##########                DOCK_Rotatable_Bonds:                   3
##########                         Heavy_Atoms:                  10
##########                    Molecular_Weight:             138.123
##########                       Formal_Charge:         0.000200056
##########                     HBond_Acceptors:                   3
##########                        HBond_Donors:                   2
##########                    Continuous_Score:          -24.002441
##########               Continuous_vdw_energy:          -21.860823
##########                Continuous_es_energy:           -2.141619
##########           Internal_energy_repulsive:            2.290015

@<TRIPOS>MOLECULE
27
 16 16 1 0 0
SMALL
GASTEIGER


@<TRIPOS>ATOM
      1 O          23.1957    8.7655   37.0997 O.2     1  UNL1       -0.2451
      2 C          22.7108    8.1375   38.0186 C.2     1  UNL1        0.3369
      3 O          22.2207    6.9431   37.8384 O.3     1  UNL1       -0.4771
      4 C          22.6114    8.6588   39.4247 C.ar    1  UNL1        0.0623
      5 C          22.0375    7.8466   40.4044 C.ar    1  UNL1       -0.0062
      6 C          23.0759    9.9325   39.7872 C.ar    1  UNL1       -0.0475
      7 C          21.9340    8.2910   41.7197 C.ar    1  UNL1        0.1176
      8 C          22.9652   10.3768   41.1040 C.ar    1  UNL1       -0.0575
      9 O          21.3843    7.4777   42.6589 O.3     1  UNL1       -0.5067
     10 C          22.3948    9.5562   42.0728 C.ar    1  UNL1       -0.0201
     11 H          22.4149    6.7186   36.9150 H       1  UNL1        0.2954
     12 H          21.6721    6.8562   40.1425 H       1  UNL1        0.0662
     13 H          23.5253   10.5969   39.0542 H       1  UNL1        0.0626
     14 H          23.3258   11.3658   41.3765 H       1  UNL1        0.0619
     15 H          21.1501    6.6336   42.2342 H       1  UNL1        0.2921
     16 H          22.3119    9.9022   43.1008 H       1  UNL1        0.0654
@<TRIPOS>BOND
     1     1     2    2
     2     2     3    1
     3     2     4    1
     4     4     5   ar
     5     4     6   ar
     6     5     7   ar
     7     6     8   ar
     8     7     9    1
     9     7    10   ar
    10     8    10   ar
    11     3    11    1
    12     5    12    1
    13     6    13    1
    14     8    14    1
    15     9    15    1
    16    10    16    1
@<TRIPOS>SUBSTRUCTURE
     1 UNL1        1 TEMP              0 ****  ****    0 ROOT


##########                                Name:                  28
##########                DOCK_Rotatable_Bonds:                   2
##########                         Heavy_Atoms:                  19
##########                    Molecular_Weight:             260.246
##########                       Formal_Charge:         -8.9407e-08
##########                     HBond_Acceptors:                   5
##########                        HBond_Donors:                   0
##########                    Continuous_Score:          -30.702929
##########               Continuous_vdw_energy:          -29.974375
##########                Continuous_es_energy:           -0.728555
##########           Internal_energy_repulsive:            9.038177

@<TRIPOS>MOLECULE
28
 31 33 1 0 0
SMALL
GASTEIGER


@<TRIPOS>ATOM
      1 O          24.3183   10.3778   36.5422 O.2     1  UNL1       -0.2869
      2 C          24.1929   11.0395   37.5550 C.ar    1  UNL1        0.1964
      3 C          23.6083   10.5666   38.8381 C.ar    1  UNL1        0.1099
      4 C          24.6612   12.4227   37.5644 C.ar    1  UNL1        0.0237
      5 C          23.5489   11.4772   39.9057 C.ar    1  UNL1        0.1874
      6 C          23.0933    9.2042   39.0465 C.ar    1  UNL1        0.1454
      7 C          24.5416   13.2182   38.6735 C.ar    1  UNL1        0.1064
      8 O          23.9510   12.8033   39.8422 O.2     1  UNL1       -0.4558
      9 C          23.0120   11.0967   41.2009 C.ar    1  UNL1        0.2063
     10 O          23.2169    8.3797   37.9366 O.3     1  UNL1       -0.4936
     11 C          22.4755    8.8928   40.3112 C.ar    1  UNL1        0.0663
     12 C          25.0270   14.6399   38.6565 C.3     1  UNL1       -0.0062
     13 O          22.7832   11.7587   42.3976 O.3     1  UNL1       -0.4884
     14 C          22.3453    9.8330   41.3453 C.ar    1  UNL1        0.1834
     15 C          22.6719    7.0500   37.8096 C.3     1  UNL1        0.0788
     16 C          21.9543    7.6592   40.8149 C.ar    1  UNL1       -0.0125
     17 C          23.0996   13.1596   42.5581 C.3     1  UNL1        0.0791
     18 O          21.8750    9.2339   42.4865 O.2     1  UNL1       -0.4590
     19 C          21.5976    7.9346   42.1176 C.ar    1  UNL1        0.0934
     20 H          25.1135   12.7775   36.6409 H       1  UNL1        0.0689
     21 H          25.4590   14.9133   37.6910 H       1  UNL1        0.0308
     22 H          25.7908   14.7933   39.4227 H       1  UNL1        0.0308
     23 H          24.2042   15.3269   38.8640 H       1  UNL1        0.0308
     24 H          22.9238    6.6650   36.8178 H       1  UNL1        0.0660
     25 H          21.5842    7.0860   37.9154 H       1  UNL1        0.0660
     26 H          23.1139    6.4003   38.5695 H       1  UNL1        0.0660
     27 H          21.8653    6.7098   40.3037 H       1  UNL1        0.0656
     28 H          22.8571   13.4697   43.5773 H       1  UNL1        0.0660
     29 H          22.5127   13.7490   41.8475 H       1  UNL1        0.0660
     30 H          24.1665   13.3137   42.3717 H       1  UNL1        0.0660
     31 H          21.1539    7.3270   42.8976 H       1  UNL1        0.1030
@<TRIPOS>BOND
     1     1     2    2
     2     2     3   ar
     3     2     4   ar
     4     3     5   ar
     5     3     6   ar
     6     4     7   ar
     7     5     8   ar
     8     5     9   ar
     9     6    10    1
    10     6    11   ar
    11     7    12    1
    12     9    13    1
    13     9    14   ar
    14    10    15    1
    15    11    16   ar
    16    13    17    1
    17    14    18   ar
    18    16    19   ar
    19     7     8   ar
    20    11    14   ar
    21    18    19   ar
    22     4    20    1
    23    12    21    1
    24    12    22    1
    25    12    23    1
    26    15    24    1
    27    15    25    1
    28    15    26    1
    29    16    27    1
    30    17    28    1
    31    17    29    1
    32    17    30    1
    33    19    31    1
@<TRIPOS>SUBSTRUCTURE
     1 UNL1        1 TEMP              0 ****  ****    0 ROOT


##########                                Name:                  28
##########                DOCK_Rotatable_Bonds:                   2
##########                         Heavy_Atoms:                  19
##########                    Molecular_Weight:             260.246
##########                       Formal_Charge:         -8.9407e-08
##########                     HBond_Acceptors:                   5
##########                        HBond_Donors:                   0
##########                    Continuous_Score:          -29.279810
##########               Continuous_vdw_energy:          -28.196207
##########                Continuous_es_energy:           -1.083602
##########           Internal_energy_repulsive:            8.912333

@<TRIPOS>MOLECULE
28
 31 33 1 0 0
SMALL
GASTEIGER


@<TRIPOS>ATOM
      1 O          24.5132   11.5982   37.1753 O.2     1  UNL1       -0.2869
      2 C          24.0183   10.8351   37.9829 C.ar    1  UNL1        0.1964
      3 C          23.6444   11.1700   39.3827 C.ar    1  UNL1        0.1099
      4 C          23.7305    9.4611   37.5804 C.ar    1  UNL1        0.0237
      5 C          23.0788   10.1539   40.1704 C.ar    1  UNL1        0.1874
      6 C          23.8339   12.5006   39.9813 C.ar    1  UNL1        0.1454
      7 C          23.1790    8.5550   38.4475 C.ar    1  UNL1        0.1064
      8 O          22.8846    8.8439   39.7577 O.2     1  UNL1       -0.4558
      9 C          22.6656   10.3960   41.5419 C.ar    1  UNL1        0.2063
     10 O          24.3812   13.4355   39.1135 O.3     1  UNL1       -0.4936
     11 C          23.5071   12.6764   41.3742 C.ar    1  UNL1        0.0663
     12 C          22.8965    7.1456   38.0107 C.3     1  UNL1       -0.0062
     13 O          22.1366    9.6130   42.5567 O.3     1  UNL1       -0.4884
     14 C          23.0192   11.6340   42.1779 C.ar    1  UNL1        0.1834
     15 C          24.7794   14.7776   39.4625 C.3     1  UNL1        0.0788
     16 C          23.5247   13.8486   42.1946 C.ar    1  UNL1       -0.0125
     17 C          21.6382    8.2809   42.3009 C.3     1  UNL1        0.0791
     18 O          22.6373   12.1097   43.4069 O.2     1  UNL1       -0.4590
     19 C          23.0059   13.4385   43.4041 C.ar    1  UNL1        0.0934
     20 H          23.9759    9.2059   36.5518 H       1  UNL1        0.0689
     21 H          23.1791    6.9755   36.9691 H       1  UNL1        0.0308
     22 H          21.8326    6.9187   38.1122 H       1  UNL1        0.0308
     23 H          23.4491    6.4359   38.6298 H       1  UNL1        0.0308
     24 H          25.1865   15.2617   38.5705 H       1  UNL1        0.0660
     25 H          25.5510   14.7434   40.2365 H       1  UNL1        0.0660
     26 H          23.9076   15.3387   39.8087 H       1  UNL1        0.0660
     27 H          23.8563   14.8450   41.9343 H       1  UNL1        0.0656
     28 H          21.2539    7.8547   43.2306 H       1  UNL1        0.0660
     29 H          22.4510    7.6551   41.9207 H       1  UNL1        0.0660
     30 H          20.8345    8.3307   41.5604 H       1  UNL1        0.0660
     31 H          22.8282   13.9599   44.3374 H       1  UNL1        0.1030
@<TRIPOS>BOND
     1     1     2    2
     2     2     3   ar
     3     2     4   ar
     4     3     5   ar
     5     3     6   ar
     6     4     7   ar
     7     5     8   ar
     8     5     9   ar
     9     6    10    1
    10     6    11   ar
    11     7    12    1
    12     9    13    1
    13     9    14   ar
    14    10    15    1
    15    11    16   ar
    16    13    17    1
    17    14    18   ar
    18    16    19   ar
    19     7     8   ar
    20    11    14   ar
    21    18    19   ar
    22     4    20    1
    23    12    21    1
    24    12    22    1
    25    12    23    1
    26    15    24    1
    27    15    25    1
    28    15    26    1
    29    16    27    1
    30    17    28    1
    31    17    29    1
    32    17    30    1
    33    19    31    1
@<TRIPOS>SUBSTRUCTURE
     1 UNL1        1 TEMP              0 ****  ****    0 ROOT


##########                                Name:                  28
##########                DOCK_Rotatable_Bonds:                   2
##########                         Heavy_Atoms:                  19
##########                    Molecular_Weight:             260.246
##########                       Formal_Charge:         -8.9407e-08
##########                     HBond_Acceptors:                   5
##########                        HBond_Donors:                   0
##########                    Continuous_Score:          -29.264891
##########               Continuous_vdw_energy:          -29.247726
##########                Continuous_es_energy:           -0.017164
##########           Internal_energy_repulsive:            8.483031

@<TRIPOS>MOLECULE
28
 31 33 1 0 0
SMALL
GASTEIGER


@<TRIPOS>ATOM
      1 O          22.0039    9.3588   42.7866 O.2     1  UNL1       -0.2869
      2 C          22.3419    9.3883   41.6186 C.ar    1  UNL1        0.1964
      3 C          22.9215   10.5594   40.9085 C.ar    1  UNL1        0.1099
      4 C          22.2015    8.1830   40.8061 C.ar    1  UNL1        0.0237
      5 C          23.2556   10.4038   39.5532 C.ar    1  UNL1        0.1874
      6 C          23.1622   11.8630   41.5468 C.ar    1  UNL1        0.1454
      7 C          22.5597    8.1575   39.4839 C.ar    1  UNL1        0.1064
      8 O          23.0421    9.2525   38.8094 O.2     1  UNL1       -0.4558
      9 C          23.8445   11.4876   38.7858 C.ar    1  UNL1        0.2063
     10 O          22.8159   11.9043   42.8904 O.3     1  UNL1       -0.4936
     11 C          23.6523   12.9444   40.7293 C.ar    1  UNL1        0.0663
     12 C          22.4011    6.9060   38.6679 C.3     1  UNL1       -0.0062
     13 O          24.2288   11.6539   37.4640 O.3     1  UNL1       -0.4884
     14 C          23.9062   12.8042   39.3559 C.ar    1  UNL1        0.1834
     15 C          22.9145   13.0581   43.7510 C.3     1  UNL1        0.0788
     16 C          24.0343   14.2780   41.0797 C.ar    1  UNL1       -0.0125
     17 C          24.6072   10.5284   36.6403 C.3     1  UNL1        0.0791
     18 O          24.5163   13.9287   38.8602 O.2     1  UNL1       -0.4590
     19 C          24.5296   14.8194   39.9128 C.ar    1  UNL1        0.0934
     20 H          21.8011    7.3098   41.3166 H       1  UNL1        0.0689
     21 H          21.9875    6.0835   39.2562 H       1  UNL1        0.0308
     22 H          23.3661    6.5832   38.2697 H       1  UNL1        0.0308
     23 H          21.7341    7.0837   37.8219 H       1  UNL1        0.0308
     24 H          22.5547   12.7808   44.7456 H       1  UNL1        0.0660
     25 H          22.2927   13.8663   43.3564 H       1  UNL1        0.0660
     26 H          23.9591   13.3720   43.8222 H       1  UNL1        0.0660
     27 H          23.9674   14.7638   42.0441 H       1  UNL1        0.0656
     28 H          24.8886   10.8864   35.6471 H       1  UNL1        0.0660
     29 H          23.7615    9.8397   36.5543 H       1  UNL1        0.0660
     30 H          25.4565   10.0132   37.0987 H       1  UNL1        0.0660
     31 H          24.9297   15.7977   39.6734 H       1  UNL1        0.1030
@<TRIPOS>BOND
     1     1     2    2
     2     2     3   ar
     3     2     4   ar
     4     3     5   ar
     5     3     6   ar
     6     4     7   ar
     7     5     8   ar
     8     5     9   ar
     9     6    10    1
    10     6    11   ar
    11     7    12    1
    12     9    13    1
    13     9    14   ar
    14    10    15    1
    15    11    16   ar
    16    13    17    1
    17    14    18   ar
    18    16    19   ar
    19     7     8   ar
    20    11    14   ar
    21    18    19   ar
    22     4    20    1
    23    12    21    1
    24    12    22    1
    25    12    23    1
    26    15    24    1
    27    15    25    1
    28    15    26    1
    29    16    27    1
    30    17    28    1
    31    17    29    1
    32    17    30    1
    33    19    31    1
@<TRIPOS>SUBSTRUCTURE
     1 UNL1        1 TEMP              0 ****  ****    0 ROOT


##########                                Name:                  29
##########                DOCK_Rotatable_Bonds:                   3
##########                         Heavy_Atoms:                  10
##########                    Molecular_Weight:             142.111
##########                       Formal_Charge:        -0.000100031
##########                     HBond_Acceptors:                   4
##########                        HBond_Donors:                   2
##########                    Continuous_Score:          -24.361696
##########               Continuous_vdw_energy:          -22.496168
##########                Continuous_es_energy:           -1.865528
##########           Internal_energy_repulsive:            1.030948

@<TRIPOS>MOLECULE
29
 16 16 1 0 0
SMALL
GASTEIGER


@<TRIPOS>ATOM
      1 O          21.5018    8.2373   42.6136 O.2     1  UNL1       -0.2838
      2 C          22.1080    8.6402   41.6384 C.ar    1  UNL1        0.2263
      3 C          22.8669    9.8946   41.6157 C.ar    1  UNL1        0.1992
      4 C          22.1393    7.9238   40.3640 C.ar    1  UNL1        0.0292
      5 O          22.8465   10.5913   42.7746 O.3     1  UNL1       -0.5012
      6 C          23.5348   10.3130   40.4864 C.ar    1  UNL1        0.1372
      7 C          22.8315    8.4184   39.2802 C.ar    1  UNL1        0.1339
      8 O          23.5563    9.6020   39.2930 O.2     1  UNL1       -0.4616
      9 C          22.8258    7.6607   37.9804 C.3     1  UNL1        0.1020
     10 O          21.5934    6.9605   37.8105 O.3     1  UNL1       -0.3873
     11 H          21.5846    6.9916   40.3264 H       1  UNL1        0.0691
     12 H          23.4037   11.3847   42.6349 H       1  UNL1        0.2924
     13 H          24.1143   11.2223   40.3815 H       1  UNL1        0.1069
     14 H          23.6430    6.9344   37.9671 H       1  UNL1        0.0638
     15 H          22.9639    8.3325   37.1286 H       1  UNL1        0.0638
     16 H          20.8752    7.6214   37.7921 H       1  UNL1        0.2100
@<TRIPOS>BOND
     1     1     2    2
     2     2     3   ar
     3     2     4   ar
     4     3     5    1
     5     3     6   ar
     6     4     7   ar
     7     6     8   ar
     8     7     9    1
     9     9    10    1
    10     7     8   ar
    11     4    11    1
    12     5    12    1
    13     6    13    1
    14     9    14    1
    15     9    15    1
    16    10    16    1
@<TRIPOS>SUBSTRUCTURE
     1 UNL1        1 TEMP              0 ****  ****    0 ROOT


##########                                Name:                  29
##########                DOCK_Rotatable_Bonds:                   3
##########                         Heavy_Atoms:                  10
##########                    Molecular_Weight:             142.111
##########                       Formal_Charge:        -0.000100031
##########                     HBond_Acceptors:                   4
##########                        HBond_Donors:                   2
##########                    Continuous_Score:          -24.154976
##########               Continuous_vdw_energy:          -22.594521
##########                Continuous_es_energy:           -1.560456
##########           Internal_energy_repulsive:            1.274122

@<TRIPOS>MOLECULE
29
 16 16 1 0 0
SMALL
GASTEIGER


@<TRIPOS>ATOM
      1 O          21.5535    7.9696   42.5336 O.2     1  UNL1       -0.2838
      2 C          22.1204    8.4681   41.5792 C.ar    1  UNL1        0.2263
      3 C          22.8178    9.7568   41.6320 C.ar    1  UNL1        0.1992
      4 C          22.1608    7.8438   40.2575 C.ar    1  UNL1        0.0292
      5 O          22.7870   10.3699   42.8368 O.3     1  UNL1       -0.5012
      6 C          23.4426   10.2845   40.5239 C.ar    1  UNL1        0.1372
      7 C          22.8070    8.4455   39.1999 C.ar    1  UNL1        0.1339
      8 O          23.4744    9.6595   39.2835 O.2     1  UNL1       -0.4616
      9 C          22.8120    7.7799   37.8504 C.3     1  UNL1        0.1020
     10 O          21.6673    6.9408   37.6982 O.3     1  UNL1       -0.3873
     11 H          21.6508    6.8903   40.1638 H       1  UNL1        0.0691
     12 H          23.2716   11.2149   42.7343 H       1  UNL1        0.2924
     13 H          23.9756   11.2263   40.4734 H       1  UNL1        0.1069
     14 H          23.7102    7.1665   37.7392 H       1  UNL1        0.0638
     15 H          22.8114    8.5182   37.0437 H       1  UNL1        0.0638
     16 H          20.8754    7.5115   37.7116 H       1  UNL1        0.2100
@<TRIPOS>BOND
     1     1     2    2
     2     2     3   ar
     3     2     4   ar
     4     3     5    1
     5     3     6   ar
     6     4     7   ar
     7     6     8   ar
     8     7     9    1
     9     9    10    1
    10     7     8   ar
    11     4    11    1
    12     5    12    1
    13     6    13    1
    14     9    14    1
    15     9    15    1
    16    10    16    1
@<TRIPOS>SUBSTRUCTURE
     1 UNL1        1 TEMP              0 ****  ****    0 ROOT


##########                                Name:                  29
##########                DOCK_Rotatable_Bonds:                   3
##########                         Heavy_Atoms:                  10
##########                    Molecular_Weight:             142.111
##########                       Formal_Charge:        -0.000100031
##########                     HBond_Acceptors:                   4
##########                        HBond_Donors:                   2
##########                    Continuous_Score:          -23.841993
##########               Continuous_vdw_energy:          -21.331644
##########                Continuous_es_energy:           -2.510350
##########           Internal_energy_repulsive:            1.079023

@<TRIPOS>MOLECULE
29
 16 16 1 0 0
SMALL
GASTEIGER


@<TRIPOS>ATOM
      1 O          21.3890    8.5453   42.7589 O.2     1  UNL1       -0.2838
      2 C          22.0469    8.7934   41.7657 C.ar    1  UNL1        0.2263
      3 C          22.9588    9.9369   41.6611 C.ar    1  UNL1        0.1992
      4 C          21.9941    7.9843   40.5489 C.ar    1  UNL1        0.0292
      5 O          23.0206   10.7163   42.7644 O.3     1  UNL1       -0.5012
      6 C          23.6806   10.1809   40.5140 C.ar    1  UNL1        0.1372
      7 C          22.7494    8.3042   39.4418 C.ar    1  UNL1        0.1339
      8 O          23.6184    9.3845   39.3773 O.2     1  UNL1       -0.4616
      9 C          22.6548    7.4568   38.2021 C.3     1  UNL1        0.1020
     10 O          21.3518    6.8871   38.0791 O.3     1  UNL1       -0.3873
     11 H          21.3259    7.1292   40.5724 H       1  UNL1        0.0691
     12 H          23.6340   11.4507   42.5553 H       1  UNL1        0.2924
     13 H          24.3712   10.9994   40.3503 H       1  UNL1        0.1069
     14 H          23.3863    6.6454   38.2469 H       1  UNL1        0.0638
     15 H          22.8636    8.0435   37.3032 H       1  UNL1        0.0638
     16 H          20.7139    7.6198   37.9827 H       1  UNL1        0.2100
@<TRIPOS>BOND
     1     1     2    2
     2     2     3   ar
     3     2     4   ar
     4     3     5    1
     5     3     6   ar
     6     4     7   ar
     7     6     8   ar
     8     7     9    1
     9     9    10    1
    10     7     8   ar
    11     4    11    1
    12     5    12    1
    13     6    13    1
    14     9    14    1
    15     9    15    1
    16    10    16    1
@<TRIPOS>SUBSTRUCTURE
     1 UNL1        1 TEMP              0 ****  ****    0 ROOT


##########                                Name:                  32
##########                DOCK_Rotatable_Bonds:                   3
##########                         Heavy_Atoms:                  12
##########                    Molecular_Weight:             166.177
##########                       Formal_Charge:         9.99533e-05
##########                     HBond_Acceptors:                   3
##########                        HBond_Donors:                   0
##########                    Continuous_Score:          -23.836342
##########               Continuous_vdw_energy:          -24.677582
##########                Continuous_es_energy:            0.841240
##########           Internal_energy_repulsive:            6.378927

@<TRIPOS>MOLECULE
32
 22 22 1 0 0
SMALL
GASTEIGER


@<TRIPOS>ATOM
      1 O          21.9515    6.5167   38.7621 O.2     1  UNL1       -0.2448
      2 C          22.5046    7.6015   38.7593 C.2     1  UNL1        0.3425
      3 O          23.0928    8.0835   37.6355 O.3     1  UNL1       -0.4644
      4 C          22.5661    8.5163   39.9626 C.ar    1  UNL1        0.1005
      5 C          22.4931    7.7925   36.3497 C.3     1  UNL1        0.0820
      6 C          23.2479    9.7511   39.9484 C.ar    1  UNL1        0.1341
      7 C          21.9228    8.1338   41.1489 C.ar    1  UNL1       -0.0442
      8 O          23.9038   10.2168   38.8267 O.3     1  UNL1       -0.4943
      9 C          23.2678   10.5643   41.0823 C.ar    1  UNL1       -0.0191
     10 C          21.9498    8.9459   42.2803 C.ar    1  UNL1       -0.0608
     11 C          25.3101   10.5401   38.9032 C.3     1  UNL1        0.0788
     12 C          22.6227   10.1627   42.2489 C.ar    1  UNL1       -0.0583
     13 H          23.0935    8.2551   35.5632 H       1  UNL1        0.0661
     14 H          21.4776    8.1981   36.3228 H       1  UNL1        0.0661
     15 H          22.4620    6.7092   36.1997 H       1  UNL1        0.0661
     16 H          21.3845    7.1912   41.2052 H       1  UNL1        0.0627
     17 H          23.7896   11.5168   41.0573 H       1  UNL1        0.0654
     18 H          21.4421    8.6288   43.1880 H       1  UNL1        0.0618
     19 H          25.4354   11.5197   39.3716 H       1  UNL1        0.0660
     20 H          25.7211   10.5586   37.8903 H       1  UNL1        0.0660
     21 H          25.8314    9.7783   39.4903 H       1  UNL1        0.0660
     22 H          22.6414   10.7991   43.1298 H       1  UNL1        0.0619
@<TRIPOS>BOND
     1     1     2    2
     2     2     3    1
     3     2     4    1
     4     3     5    1
     5     4     6   ar
     6     4     7   ar
     7     6     8    1
     8     6     9   ar
     9     7    10   ar
    10     8    11    1
    11     9    12   ar
    12    10    12   ar
    13     5    13    1
    14     5    14    1
    15     5    15    1
    16     7    16    1
    17     9    17    1
    18    10    18    1
    19    11    19    1
    20    11    20    1
    21    11    21    1
    22    12    22    1
@<TRIPOS>SUBSTRUCTURE
     1 UNL1        1 TEMP              0 ****  ****    0 ROOT


##########                                Name:                  32
##########                DOCK_Rotatable_Bonds:                   3
##########                         Heavy_Atoms:                  12
##########                    Molecular_Weight:             166.177
##########                       Formal_Charge:         9.99533e-05
##########                     HBond_Acceptors:                   3
##########                        HBond_Donors:                   0
##########                    Continuous_Score:          -18.789610
##########               Continuous_vdw_energy:          -16.539637
##########                Continuous_es_energy:           -2.249973
##########           Internal_energy_repulsive:            7.885686

@<TRIPOS>MOLECULE
32
 22 22 1 0 0
SMALL
GASTEIGER


@<TRIPOS>ATOM
      1 O          26.4039    9.4593   37.8558 O.2     1  UNL1       -0.2448
      2 C          25.3569    9.9956   38.1701 C.2     1  UNL1        0.3425
      3 O          25.1424   11.3117   37.9187 O.3     1  UNL1       -0.4644
      4 C          24.2037    9.2680   38.8254 C.ar    1  UNL1        0.1005
      5 C          24.1388   12.0183   38.6875 C.3     1  UNL1        0.0820
      6 C          23.2722    8.5002   38.0957 C.ar    1  UNL1        0.1341
      7 C          24.0414    9.3516   40.2161 C.ar    1  UNL1       -0.0442
      8 O          23.3530    8.3521   36.7257 O.3     1  UNL1       -0.4943
      9 C          22.2302    7.8399   38.7481 C.ar    1  UNL1       -0.0191
     10 C          22.9966    8.6955   40.8629 C.ar    1  UNL1       -0.0608
     11 C          22.2129    7.8522   35.9920 C.3     1  UNL1        0.0788
     12 C          22.0890    7.9384   40.1296 C.ar    1  UNL1       -0.0583
     13 H          24.1015   13.0580   38.3551 H       1  UNL1        0.0661
     14 H          24.4022   11.9815   39.7486 H       1  UNL1        0.0661
     15 H          23.1637   11.5472   38.5328 H       1  UNL1        0.0661
     16 H          24.7359    9.9311   40.8188 H       1  UNL1        0.0627
     17 H          21.5233    7.2450   38.1766 H       1  UNL1        0.0654
     18 H          22.8924    8.7733   41.9423 H       1  UNL1        0.0618
     19 H          22.1582    6.7656   36.0967 H       1  UNL1        0.0660
     20 H          22.3310    8.1171   34.9378 H       1  UNL1        0.0660
     21 H          21.2973    8.3092   36.3786 H       1  UNL1        0.0660
     22 H          21.2754    7.4228   40.6333 H       1  UNL1        0.0619
@<TRIPOS>BOND
     1     1     2    2
     2     2     3    1
     3     2     4    1
     4     3     5    1
     5     4     6   ar
     6     4     7   ar
     7     6     8    1
     8     6     9   ar
     9     7    10   ar
    10     8    11    1
    11     9    12   ar
    12    10    12   ar
    13     5    13    1
    14     5    14    1
    15     5    15    1
    16     7    16    1
    17     9    17    1
    18    10    18    1
    19    11    19    1
    20    11    20    1
    21    11    21    1
    22    12    22    1
@<TRIPOS>SUBSTRUCTURE
     1 UNL1        1 TEMP              0 ****  ****    0 ROOT


##########                                Name:                  32
##########                DOCK_Rotatable_Bonds:                   3
##########                         Heavy_Atoms:                  12
##########                    Molecular_Weight:             166.177
##########                       Formal_Charge:         9.99533e-05
##########                     HBond_Acceptors:                   3
##########                        HBond_Donors:                   0
##########                    Continuous_Score:          -22.313753
##########               Continuous_vdw_energy:          -22.878769
##########                Continuous_es_energy:            0.565015
##########           Internal_energy_repulsive:            3.758283

@<TRIPOS>MOLECULE
32
 22 22 1 0 0
SMALL
GASTEIGER


@<TRIPOS>ATOM
      1 O          22.6833   12.7050   40.6469 O.2     1  UNL1       -0.2448
      2 C          22.8664   11.5886   41.0972 C.2     1  UNL1        0.3425
      3 O          22.9549   11.3803   42.4352 O.3     1  UNL1       -0.4644
      4 C          22.9793   10.3457   40.2421 C.ar    1  UNL1        0.1005
      5 C          23.0690   12.5233   43.3173 C.3     1  UNL1        0.0820
      6 C          22.2725    9.1582   40.5247 C.ar    1  UNL1        0.1341
      7 C          23.8183   10.3603   39.1181 C.ar    1  UNL1       -0.0442
      8 O          21.4176    9.0493   41.6030 O.3     1  UNL1       -0.4943
      9 C          22.4035    8.0405   39.6995 C.ar    1  UNL1       -0.0191
     10 C          23.9506    9.2406   38.3001 C.ar    1  UNL1       -0.0608
     11 C          21.3399    7.8037   42.3310 C.3     1  UNL1        0.0788
     12 C          23.2433    8.0785   38.5896 C.ar    1  UNL1       -0.0583
     13 H          23.1286   12.1724   44.3498 H       1  UNL1        0.0661
     14 H          22.1900   13.1633   43.1973 H       1  UNL1        0.0661
     15 H          23.9728   13.0868   43.0673 H       1  UNL1        0.0661
     16 H          24.3815   11.2538   38.8616 H       1  UNL1        0.0627
     17 H          21.8481    7.1338   39.9225 H       1  UNL1        0.0654
     18 H          24.6056    9.2764   37.4330 H       1  UNL1        0.0618
     19 H          20.7176    7.0950   41.7782 H       1  UNL1        0.0660
     20 H          20.8978    7.9978   43.3119 H       1  UNL1        0.0660
     21 H          22.3444    7.3912   42.4632 H       1  UNL1        0.0660
     22 H          23.3426    7.2052   37.9502 H       1  UNL1        0.0619
@<TRIPOS>BOND
     1     1     2    2
     2     2     3    1
     3     2     4    1
     4     3     5    1
     5     4     6   ar
     6     4     7   ar
     7     6     8    1
     8     6     9   ar
     9     7    10   ar
    10     8    11    1
    11     9    12   ar
    12    10    12   ar
    13     5    13    1
    14     5    14    1
    15     5    15    1
    16     7    16    1
    17     9    17    1
    18    10    18    1
    19    11    19    1
    20    11    20    1
    21    11    21    1
    22    12    22    1
@<TRIPOS>SUBSTRUCTURE
     1 UNL1        1 TEMP              0 ****  ****    0 ROOT


##########                                Name:                  33
##########                DOCK_Rotatable_Bonds:                   3
##########                         Heavy_Atoms:                  17
##########                    Molecular_Weight:             232.239
##########                       Formal_Charge:         8.56817e-08
##########                     HBond_Acceptors:                   5
##########                        HBond_Donors:                   1
##########                    Continuous_Score:          -29.472427
##########               Continuous_vdw_energy:          -29.093512
##########                Continuous_es_energy:           -0.378917
##########           Internal_energy_repulsive:            5.998515

@<TRIPOS>MOLECULE
33
 29 30 1 0 0
SMALL
GASTEIGER


@<TRIPOS>ATOM
      1 O          22.0714    9.4955   42.6435 O.2     1  UNL1       -0.2862
      2 C          22.5374    9.9818   41.6286 C.ar    1  UNL1        0.2049
      3 C          23.0695   11.3473   41.5240 C.ar    1  UNL1        0.1221
      4 C          22.5932    9.2316   40.3813 C.ar    1  UNL1        0.0650
      5 C          23.0820   12.2882   42.6767 C.2     1  UNL1        0.3420
      6 C          23.5887   11.8372   40.3395 C.ar    1  UNL1        0.0242
      7 C          23.1239    9.7390   39.1932 C.ar    1  UNL1        0.1446
      8 C          22.0768    7.8715   40.3042 C.ar    1  UNL1       -0.0457
      9 O          22.7958   11.9740   43.8153 O.2     1  UNL1       -0.2449
     10 O          23.4244   13.5263   42.4303 O.3     1  UNL1       -0.4770
     11 N          23.6476   11.0437   39.1899 N.ar    1  UNL1       -0.3312
     12 N          23.1559    9.1525   38.2401 N.ar    1  UNL1       -0.2341
     13 C          22.1434    7.1970   39.0893 C.ar    1  UNL1       -0.0398
     14 C          24.2521   11.6511   37.9858 C.3     1  UNL1        0.0218
     15 C          22.7140    7.8944   38.0326 C.ar    1  UNL1        0.0406
     16 C          25.7698   11.4125   37.8927 C.3     1  UNL1       -0.0470
     17 C          22.8560    7.2963   36.6457 C.3     1  UNL1       -0.0223
     18 H          23.9853   12.8400   40.2281 H       1  UNL1        0.0819
     19 H          21.6391    7.3744   41.1663 H       1  UNL1        0.0626
     20 H          23.5864   13.5956   41.4656 H       1  UNL1        0.2954
     21 H          21.7691    6.1823   38.9759 H       1  UNL1        0.0636
     22 H          24.0567   12.7274   37.9750 H       1  UNL1        0.0489
     23 H          23.7772   11.2319   37.0939 H       1  UNL1        0.0489
     24 H          26.2816   11.8426   38.7565 H       1  UNL1        0.0247
     25 H          26.1699   11.8781   36.9895 H       1  UNL1        0.0247
     26 H          25.9891   10.3432   37.8558 H       1  UNL1        0.0247
     27 H          23.4718    7.9304   36.0030 H       1  UNL1        0.0292
     28 H          21.8749    7.1852   36.1789 H       1  UNL1        0.0292
     29 H          23.3247    6.3112   36.7020 H       1  UNL1        0.0292
@<TRIPOS>BOND
     1     1     2    2
     2     2     3   ar
     3     2     4   ar
     4     3     5    1
     5     3     6   ar
     6     4     7   ar
     7     4     8   ar
     8     5     9    2
     9     5    10    1
    10     6    11   ar
    11     7    12   ar
    12     8    13   ar
    13    11    14    1
    14    12    15   ar
    15    14    16    1
    16    15    17    1
    17     7    11   ar
    18    13    15   ar
    19     6    18    1
    20     8    19    1
    21    10    20    1
    22    13    21    1
    23    14    22    1
    24    14    23    1
    25    16    24    1
    26    16    25    1
    27    16    26    1
    28    17    27    1
    29    17    28    1
    30    17    29    1
@<TRIPOS>SUBSTRUCTURE
     1 UNL1        1 TEMP              0 ****  ****    0 ROOT


##########                                Name:                  33
##########                DOCK_Rotatable_Bonds:                   3
##########                         Heavy_Atoms:                  17
##########                    Molecular_Weight:             232.239
##########                       Formal_Charge:         8.56817e-08
##########                     HBond_Acceptors:                   5
##########                        HBond_Donors:                   1
##########                    Continuous_Score:          -29.961227
##########               Continuous_vdw_energy:          -29.296421
##########                Continuous_es_energy:           -0.664806
##########           Internal_energy_repulsive:            5.580034

@<TRIPOS>MOLECULE
33
 29 30 1 0 0
SMALL
GASTEIGER


@<TRIPOS>ATOM
      1 O          22.1061    9.6366   42.5963 O.2     1  UNL1       -0.2862
      2 C          22.5721   10.1252   41.5825 C.ar    1  UNL1        0.2049
      3 C          23.0641   11.5050   41.4693 C.ar    1  UNL1        0.1221
      4 C          22.6693    9.3628   40.3451 C.ar    1  UNL1        0.0650
      5 C          23.0310   12.4590   42.6108 C.2     1  UNL1        0.3420
      6 C          23.5856   11.9969   40.2868 C.ar    1  UNL1        0.0242
      7 C          23.2019    9.8726   39.1590 C.ar    1  UNL1        0.1446
      8 C          22.1955    7.9867   40.2768 C.ar    1  UNL1       -0.0457
      9 O          22.9560   13.6659   42.4876 O.2     1  UNL1       -0.2449
     10 O          23.0873   11.9494   43.8141 O.3     1  UNL1       -0.4770
     11 N          23.6857   11.1925   39.1476 N.ar    1  UNL1       -0.3312
     12 N          23.2658    9.2763   38.2134 N.ar    1  UNL1       -0.2341
     13 C          22.3007    7.3008   39.0710 C.ar    1  UNL1       -0.0398
     14 C          24.2893   11.8042   37.9453 C.3     1  UNL1        0.0218
     15 C          22.8654    8.0031   38.0145 C.ar    1  UNL1        0.0406
     16 C          25.8042   11.5518   37.8416 C.3     1  UNL1       -0.0470
     17 C          23.0461    7.3937   36.6370 C.3     1  UNL1       -0.0223
     18 H          23.9533   13.0100   40.1692 H       1  UNL1        0.0819
     19 H          21.7603    7.4864   41.1383 H       1  UNL1        0.0626
     20 H          23.1268   10.9745   43.7143 H       1  UNL1        0.2954
     21 H          21.9591    6.2738   38.9643 H       1  UNL1        0.0636
     22 H          24.1043   12.8823   37.9446 H       1  UNL1        0.0489
     23 H          23.8055   11.3972   37.0527 H       1  UNL1        0.0489
     24 H          26.3249   11.9697   38.7062 H       1  UNL1        0.0247
     25 H          26.2037   12.0213   36.9402 H       1  UNL1        0.0247
     26 H          26.0130   10.4808   37.7945 H       1  UNL1        0.0247
     27 H          23.6518    8.0390   35.9959 H       1  UNL1        0.0292
     28 H          22.0758    7.2474   36.1575 H       1  UNL1        0.0292
     29 H          23.5436    6.4241   36.7119 H       1  UNL1        0.0292
@<TRIPOS>BOND
     1     1     2    2
     2     2     3   ar
     3     2     4   ar
     4     3     5    1
     5     3     6   ar
     6     4     7   ar
     7     4     8   ar
     8     5     9    2
     9     5    10    1
    10     6    11   ar
    11     7    12   ar
    12     8    13   ar
    13    11    14    1
    14    12    15   ar
    15    14    16    1
    16    15    17    1
    17     7    11   ar
    18    13    15   ar
    19     6    18    1
    20     8    19    1
    21    10    20    1
    22    13    21    1
    23    14    22    1
    24    14    23    1
    25    16    24    1
    26    16    25    1
    27    16    26    1
    28    17    27    1
    29    17    28    1
    30    17    29    1
@<TRIPOS>SUBSTRUCTURE
     1 UNL1        1 TEMP              0 ****  ****    0 ROOT


##########                                Name:                  33
##########                DOCK_Rotatable_Bonds:                   3
##########                         Heavy_Atoms:                  17
##########                    Molecular_Weight:             232.239
##########                       Formal_Charge:         8.56817e-08
##########                     HBond_Acceptors:                   5
##########                        HBond_Donors:                   1
##########                    Continuous_Score:          -29.667385
##########               Continuous_vdw_energy:          -29.279440
##########                Continuous_es_energy:           -0.387945
##########           Internal_energy_repulsive:            6.026628

@<TRIPOS>MOLECULE
33
 29 30 1 0 0
SMALL
GASTEIGER


@<TRIPOS>ATOM
      1 O          22.0971    9.5728   42.7076 O.2     1  UNL1       -0.2862
      2 C          22.5605   10.0583   41.6911 C.ar    1  UNL1        0.2049
      3 C          23.0900   11.4246   41.5833 C.ar    1  UNL1        0.1221
      4 C          22.6157    9.3062   40.4448 C.ar    1  UNL1        0.0650
      5 C          23.1026   12.3675   42.7345 C.2     1  UNL1        0.3420
      6 C          23.6062   11.9137   40.3973 C.ar    1  UNL1        0.0242
      7 C          23.1435    9.8128   39.2552 C.ar    1  UNL1        0.1446
      8 C          22.1018    7.9451   40.3708 C.ar    1  UNL1       -0.0457
      9 O          22.8184   12.0546   43.8740 O.2     1  UNL1       -0.2449
     10 O          23.4429   13.6056   42.4857 O.3     1  UNL1       -0.4770
     11 N          23.6649   11.1185   39.2487 N.ar    1  UNL1       -0.3312
     12 N          23.1751    9.2247   38.3028 N.ar    1  UNL1       -0.2341
     13 C          22.1677    7.2687   39.1567 C.ar    1  UNL1       -0.0398
     14 C          24.2662   11.7249   38.0428 C.3     1  UNL1        0.0218
     15 C          22.7352    7.9656   38.0980 C.ar    1  UNL1        0.0406
     16 C          25.7907   11.5261   37.9693 C.3     1  UNL1       -0.0470
     17 C          22.8760    7.3654   36.7119 C.3     1  UNL1       -0.0223
     18 H          24.0009   12.9169   40.2836 H       1  UNL1        0.0819
     19 H          21.6664    7.4485   41.2344 H       1  UNL1        0.0626
     20 H          23.6904   13.6532   41.5380 H       1  UNL1        0.2954
     21 H          21.7950    6.2531   39.0456 H       1  UNL1        0.0636
     22 H          24.0423   12.7953   38.0145 H       1  UNL1        0.0489
     23 H          23.8127   11.2808   37.1519 H       1  UNL1        0.0489
     24 H          26.2812   11.9818   38.8325 H       1  UNL1        0.0247
     25 H          26.1883   11.9897   37.0640 H       1  UNL1        0.0247
     26 H          26.0391   10.4625   37.9500 H       1  UNL1        0.0247
     27 H          23.4896    7.9997   36.0672 H       1  UNL1        0.0292
     28 H          21.8943    7.2518   36.2469 H       1  UNL1        0.0292
     29 H          23.3466    6.3813   36.7691 H       1  UNL1        0.0292
@<TRIPOS>BOND
     1     1     2    2
     2     2     3   ar
     3     2     4   ar
     4     3     5    1
     5     3     6   ar
     6     4     7   ar
     7     4     8   ar
     8     5     9    2
     9     5    10    1
    10     6    11   ar
    11     7    12   ar
    12     8    13   ar
    13    11    14    1
    14    12    15   ar
    15    14    16    1
    16    15    17    1
    17     7    11   ar
    18    13    15   ar
    19     6    18    1
    20     8    19    1
    21    10    20    1
    22    13    21    1
    23    14    22    1
    24    14    23    1
    25    16    24    1
    26    16    25    1
    27    16    26    1
    28    17    27    1
    29    17    28    1
    30    17    29    1
@<TRIPOS>SUBSTRUCTURE
     1 UNL1        1 TEMP              0 ****  ****    0 ROOT


##########                                Name:                  34
##########                DOCK_Rotatable_Bonds:                   4
##########                         Heavy_Atoms:                  30
##########                    Molecular_Weight:             413.427
##########                       Formal_Charge:         0.000399768
##########                     HBond_Acceptors:                   8
##########                        HBond_Donors:                   0
##########                    Continuous_Score:          -35.301941
##########               Continuous_vdw_energy:          -34.932850
##########                Continuous_es_energy:           -0.369092
##########           Internal_energy_repulsive:           12.932488

@<TRIPOS>MOLECULE
34
 53 57 1 0 0
SMALL
GASTEIGER


@<TRIPOS>ATOM
      1 O          16.6179   13.3899   40.8228 O.2     1  UNL1       -0.2448
      2 C          16.1621   14.0636   41.7178 C.2     1  UNL1        0.3439
      3 O          14.8474   14.3369   41.8108 O.3     1  UNL1       -0.4510
      4 C          16.8236   14.7379   42.8404 C.ar    1  UNL1        0.1108
      5 C          14.5219   15.1062   42.9999 C.3     1  UNL1        0.1489
      6 C          18.2282   14.8339   43.2469 C.ar    1  UNL1        0.1758
      7 C          15.8589   15.4131   43.6409 C.ar    1  UNL1        0.0123
      8 C          13.5655   14.2700   43.8918 C.3     1  UNL1        0.0808
      9 O          19.3523   14.2972   42.6250 O.3     1  UNL1       -0.4906
     10 C          18.4997   15.5886   44.4232 C.ar    1  UNL1        0.1623
     11 C          16.1571   16.1526   44.7676 C.ar    1  UNL1       -0.0505
     12 N          13.8877   12.8043   43.7719 N.3     1  UNL1       -0.2946
     13 C          12.1138   14.6615   43.5760 C.ar    1  UNL1        0.0223
     14 C          19.7680   14.4929   41.2590 C.3     1  UNL1        0.0790
     15 O          19.7603   15.7944   44.9875 O.3     1  UNL1       -0.4914
     16 C          17.4851   16.2241   45.1493 C.ar    1  UNL1       -0.0159
     17 C          12.7599   11.9065   43.4233 C.3     1  UNL1        0.0033
     18 C          14.6363   12.2675   44.9321 C.3     1  UNL1       -0.0120
     19 C          11.5674   15.8785   44.0193 C.ar    1  UNL1        0.1704
     20 C          11.3322   13.8199   42.7753 C.ar    1  UNL1       -0.0342
     21 C          20.9318   14.9516   44.8860 C.3     1  UNL1        0.0790
     22 C          11.9164   12.5081   42.2937 C.3     1  UNL1       -0.0143
     23 O          12.2968   16.9120   44.5958 O.3     1  UNL1       -0.4910
     24 C          10.1732   16.1956   43.7953 C.ar    1  UNL1        0.2079
     25 C          10.0271   14.1650   42.4263 C.ar    1  UNL1       -0.0124
     26 C          12.6087   18.1611   43.9413 C.3     1  UNL1        0.0790
     27 O           9.7060   17.4728   43.6379 O.3     1  UNL1       -0.4489
     28 C           9.3906   15.3194   42.9950 C.ar    1  UNL1        0.1702
     29 C           8.4571   17.3752   42.9041 C.3     1  UNL1        0.2334
     30 O           8.4446   16.0419   42.3245 O.3     1  UNL1       -0.4525
     31 H          14.0308   16.0324   42.6864 H       1  UNL1        0.0805
     32 H          13.7553   14.5410   44.9294 H       1  UNL1        0.0554
     33 H          15.3800   16.6440   45.3460 H       1  UNL1        0.0623
     34 H          20.7343   14.0033   41.1164 H       1  UNL1        0.0660
     35 H          19.8756   15.5615   41.0558 H       1  UNL1        0.0660
     36 H          19.0376   14.0369   40.5860 H       1  UNL1        0.0660
     37 H          17.7487   16.7897   46.0398 H       1  UNL1        0.0655
     38 H          12.1206   11.7599   44.3000 H       1  UNL1        0.0430
     39 H          13.1488   10.9336   43.1107 H       1  UNL1        0.0430
     40 H          15.5346   12.8585   45.1212 H       1  UNL1        0.0391
     41 H          14.9379   11.2343   44.7362 H       1  UNL1        0.0391
     42 H          14.0058   12.2870   45.8257 H       1  UNL1        0.0391
     43 H          21.7442   15.4057   45.4587 H       1  UNL1        0.0660
     44 H          21.2310   14.8670   43.8378 H       1  UNL1        0.0660
     45 H          20.7074   13.9633   45.2961 H       1  UNL1        0.0660
     46 H          11.1213   11.8087   42.0244 H       1  UNL1        0.0326
     47 H          12.5317   12.6688   41.4052 H       1  UNL1        0.0326
     48 H           9.4346   13.5232   41.7804 H       1  UNL1        0.0658
     49 H          13.5566   18.5341   44.3382 H       1  UNL1        0.0660
     50 H          11.8285   18.8917   44.1640 H       1  UNL1        0.0660
     51 H          12.6947   18.0082   42.8624 H       1  UNL1        0.0660
     52 H           8.3881   18.1522   42.1273 H       1  UNL1        0.1166
     53 H           7.6192   17.4597   43.6145 H       1  UNL1        0.1166
@<TRIPOS>BOND
     1     1     2    2
     2     2     3    1
     3     2     4    1
     4     3     5    1
     5     4     6   ar
     6     4     7   ar
     7     5     8    1
     8     6     9    1
     9     6    10   ar
    10     7    11   ar
    11     8    12    1
    12     8    13    1
    13     9    14    1
    14    10    15    1
    15    10    16   ar
    16    12    17    1
    17    12    18    1
    18    13    19   ar
    19    13    20   ar
    20    15    21    1
    21    17    22    1
    22    19    23    1
    23    19    24   ar
    24    20    25   ar
    25    23    26    1
    26    24    27    1
    27    24    28   ar
    28    27    29    1
    29    28    30    1
    30     5     7    1
    31    11    16   ar
    32    20    22    1
    33    25    28   ar
    34    29    30    1
    35     5    31    1
    36     8    32    1
    37    11    33    1
    38    14    34    1
    39    14    35    1
    40    14    36    1
    41    16    37    1
    42    17    38    1
    43    17    39    1
    44    18    40    1
    45    18    41    1
    46    18    42    1
    47    21    43    1
    48    21    44    1
    49    21    45    1
    50    22    46    1
    51    22    47    1
    52    25    48    1
    53    26    49    1
    54    26    50    1
    55    26    51    1
    56    29    52    1
    57    29    53    1
@<TRIPOS>SUBSTRUCTURE
     1 UNL1        1 TEMP              0 ****  ****    0 ROOT


##########                                Name:                  34
##########                DOCK_Rotatable_Bonds:                   4
##########                         Heavy_Atoms:                  30
##########                    Molecular_Weight:             413.427
##########                       Formal_Charge:         0.000399768
##########                     HBond_Acceptors:                   8
##########                        HBond_Donors:                   0
##########                    Continuous_Score:          -28.051689
##########               Continuous_vdw_energy:          -25.726740
##########                Continuous_es_energy:           -2.324948
##########           Internal_energy_repulsive:           17.634781

@<TRIPOS>MOLECULE
34
 53 57 1 0 0
SMALL
GASTEIGER


@<TRIPOS>ATOM
      1 O           5.8812   17.0137   45.8109 O.2     1  UNL1       -0.2448
      2 C           6.5201   16.3495   45.0277 C.2     1  UNL1        0.3439
      3 O           6.4355   15.0067   44.9910 O.3     1  UNL1       -0.4510
      4 C           7.4941   16.7488   44.0057 C.ar    1  UNL1        0.1108
      5 C           7.2406   14.4275   43.9289 C.3     1  UNL1        0.1489
      6 C           8.0226   18.0541   43.6002 C.ar    1  UNL1        0.1758
      7 C           7.9834   15.5992   43.3225 C.ar    1  UNL1        0.0123
      8 C           6.3043   13.6855   42.9378 C.3     1  UNL1        0.0808
      9 O           7.7328   19.3107   44.1247 O.3     1  UNL1       -0.4906
     10 C           8.9745   18.0537   42.5415 C.ar    1  UNL1        0.1623
     11 C           8.9212   15.6313   42.3104 C.ar    1  UNL1       -0.0505
     12 N           4.9526   14.3473   42.9015 N.3     1  UNL1       -0.2946
     13 C           6.3039   12.1864   43.2739 C.ar    1  UNL1        0.0223
     14 C           6.4895   19.7433   44.7114 C.3     1  UNL1        0.0790
     15 O           9.5895   19.1831   41.9973 O.3     1  UNL1       -0.4914
     16 C           9.4021   16.8706   41.9268 C.ar    1  UNL1       -0.0159
     17 C           3.7807   13.4687   43.1342 C.3     1  UNL1        0.0033
     18 C           4.7384   15.1875   41.7004 C.3     1  UNL1       -0.0120
     19 C           7.3978   11.3618   42.9584 C.ar    1  UNL1        0.1704
     20 C           5.2189   11.6363   43.9669 C.ar    1  UNL1       -0.0342
     21 C          10.5566   19.2423   40.9229 C.3     1  UNL1        0.0790
     22 C           4.0381   12.5206   44.3107 C.3     1  UNL1       -0.0143
     23 O           8.6314   11.8184   42.5084 O.3     1  UNL1       -0.4910
     24 C           7.3492    9.9351   43.1960 C.ar    1  UNL1        0.2079
     25 C           5.2047   10.2911   44.3331 C.ar    1  UNL1       -0.0124
     26 C           9.8084   11.9520   43.3346 C.3     1  UNL1        0.0790
     27 O           8.4544    9.1805   43.4852 O.3     1  UNL1       -0.4489
     28 C           6.2306    9.3921   43.8849 C.ar    1  UNL1        0.1702
     29 C           7.9842    7.9992   44.1863 C.3     1  UNL1        0.2334
     30 O           6.6308    8.3102   44.6167 O.3     1  UNL1       -0.4525
     31 H           7.9471   13.7231   44.3784 H       1  UNL1        0.0805
     32 H           6.7244   13.7929   41.9387 H       1  UNL1        0.0554
     33 H           9.2563   14.7229   41.8181 H       1  UNL1        0.0623
     34 H           6.6225   20.7560   45.0998 H       1  UNL1        0.0660
     35 H           6.2190   19.0776   45.5351 H       1  UNL1        0.0660
     36 H           5.7098   19.7577   43.9458 H       1  UNL1        0.0660
     37 H          10.1330   16.9278   41.1237 H       1  UNL1        0.0655
     38 H           3.5835   12.8716   42.2379 H       1  UNL1        0.0430
     39 H           2.8994   14.0809   43.3442 H       1  UNL1        0.0430
     40 H           5.5424   15.9177   41.5896 H       1  UNL1        0.0391
     41 H           3.7912   15.7277   41.7867 H       1  UNL1        0.0391
     42 H           4.7058   14.5594   40.8055 H       1  UNL1        0.0391
     43 H          10.8384   20.2851   40.7585 H       1  UNL1        0.0660
     44 H          10.1120   18.8389   40.0091 H       1  UNL1        0.0660
     45 H          11.4440   18.6658   41.1981 H       1  UNL1        0.0660
     46 H           3.1453   11.9172   44.4909 H       1  UNL1        0.0326
     47 H           4.2419   13.0911   45.2200 H       1  UNL1        0.0326
     48 H           4.3742    9.8755   44.8967 H       1  UNL1        0.0658
     49 H          10.4208   12.7660   42.9378 H       1  UNL1        0.0660
     50 H          10.3890   11.0284   43.2902 H       1  UNL1        0.0660
     51 H           9.5203   12.1750   44.3650 H       1  UNL1        0.0660
     52 H           8.6330    7.7577   45.0421 H       1  UNL1        0.1166
     53 H           7.9449    7.1566   43.4776 H       1  UNL1        0.1166
@<TRIPOS>BOND
     1     1     2    2
     2     2     3    1
     3     2     4    1
     4     3     5    1
     5     4     6   ar
     6     4     7   ar
     7     5     8    1
     8     6     9    1
     9     6    10   ar
    10     7    11   ar
    11     8    12    1
    12     8    13    1
    13     9    14    1
    14    10    15    1
    15    10    16   ar
    16    12    17    1
    17    12    18    1
    18    13    19   ar
    19    13    20   ar
    20    15    21    1
    21    17    22    1
    22    19    23    1
    23    19    24   ar
    24    20    25   ar
    25    23    26    1
    26    24    27    1
    27    24    28   ar
    28    27    29    1
    29    28    30    1
    30     5     7    1
    31    11    16   ar
    32    20    22    1
    33    25    28   ar
    34    29    30    1
    35     5    31    1
    36     8    32    1
    37    11    33    1
    38    14    34    1
    39    14    35    1
    40    14    36    1
    41    16    37    1
    42    17    38    1
    43    17    39    1
    44    18    40    1
    45    18    41    1
    46    18    42    1
    47    21    43    1
    48    21    44    1
    49    21    45    1
    50    22    46    1
    51    22    47    1
    52    25    48    1
    53    26    49    1
    54    26    50    1
    55    26    51    1
    56    29    52    1
    57    29    53    1
@<TRIPOS>SUBSTRUCTURE
     1 UNL1        1 TEMP              0 ****  ****    0 ROOT


##########                                Name:                  34
##########                DOCK_Rotatable_Bonds:                   4
##########                         Heavy_Atoms:                  30
##########                    Molecular_Weight:             413.427
##########                       Formal_Charge:         0.000399768
##########                     HBond_Acceptors:                   8
##########                        HBond_Donors:                   0
##########                    Continuous_Score:          -28.088747
##########               Continuous_vdw_energy:          -25.601889
##########                Continuous_es_energy:           -2.486858
##########           Internal_energy_repulsive:           19.426847

@<TRIPOS>MOLECULE
34
 53 57 1 0 0
SMALL
GASTEIGER


@<TRIPOS>ATOM
      1 O           5.8565   16.9663   45.8433 O.2     1  UNL1       -0.2448
      2 C           6.4943   16.3180   45.0462 C.2     1  UNL1        0.3439
      3 O           6.4316   14.9741   45.0017 O.3     1  UNL1       -0.4510
      4 C           7.4459   16.7401   44.0122 C.ar    1  UNL1        0.1108
      5 C           7.2299   14.4153   43.9237 C.3     1  UNL1        0.1489
      6 C           7.9463   18.0566   43.6075 C.ar    1  UNL1        0.1758
      7 C           7.9438   15.6034   43.3140 C.ar    1  UNL1        0.0123
      8 C           6.2912   13.6642   42.9419 C.3     1  UNL1        0.0808
      9 O           7.6437   19.3047   44.1448 O.3     1  UNL1       -0.4906
     10 C           8.8818   18.0790   42.5345 C.ar    1  UNL1        0.1623
     11 C           8.8653   15.6576   42.2880 C.ar    1  UNL1       -0.0505
     12 N           4.9359   14.3192   42.9111 N.3     1  UNL1       -0.2946
     13 C           6.3002   12.1667   43.2848 C.ar    1  UNL1        0.0223
     14 C           6.4403   19.6840   44.8413 C.3     1  UNL1        0.0790
     15 O           9.4696   19.2220   41.9887 O.3     1  UNL1       -0.4914
     16 C           9.3196   16.9073   41.9056 C.ar    1  UNL1       -0.0159
     17 C           3.7698   13.4359   43.1552 C.3     1  UNL1        0.0033
     18 C           4.7101   15.1528   41.7076 C.3     1  UNL1       -0.0120
     19 C           7.3963   11.3461   42.9662 C.ar    1  UNL1        0.1704
     20 C           5.2224   11.6145   43.9872 C.ar    1  UNL1       -0.0342
     21 C           9.2547   20.6024   42.3647 C.3     1  UNL1        0.0790
     22 C           4.0395   12.4944   44.3344 C.3     1  UNL1       -0.0143
     23 O           8.6246   11.8066   42.5063 O.3     1  UNL1       -0.4910
     24 C           7.3563    9.9203   43.2107 C.ar    1  UNL1        0.2079
     25 C           5.2172   10.2708   44.3596 C.ar    1  UNL1       -0.0124
     26 C           9.8151   11.9181   43.3164 C.3     1  UNL1        0.0790
     27 O           8.4670    9.1724   43.4962 O.3     1  UNL1       -0.4489
     28 C           6.2447    9.3749   43.9090 C.ar    1  UNL1        0.1702
     29 C           8.0070    7.9921   44.2058 C.3     1  UNL1        0.2334
     30 O           6.6548    8.2984   44.6432 O.3     1  UNL1       -0.4525
     31 H           7.9548   13.7200   44.3576 H       1  UNL1        0.0805
     32 H           6.7043   13.7692   41.9396 H       1  UNL1        0.0554
     33 H           9.2080   14.7581   41.7846 H       1  UNL1        0.0623
     34 H           6.5577   20.7073   45.2058 H       1  UNL1        0.0660
     35 H           6.2815   19.0176   45.6929 H       1  UNL1        0.0660
     36 H           5.5929   19.6489   44.1520 H       1  UNL1        0.0660
     37 H          10.0372   16.9818   41.0919 H       1  UNL1        0.0655
     38 H           3.5701   12.8337   42.2629 H       1  UNL1        0.0430
     39 H           2.8869   14.0447   43.3680 H       1  UNL1        0.0430
     40 H           5.5097   15.8865   41.5884 H       1  UNL1        0.0391
     41 H           3.7606   15.6888   41.7974 H       1  UNL1        0.0391
     42 H           4.6749   14.5204   40.8158 H       1  UNL1        0.0391
     43 H           9.8669   21.2423   41.7244 H       1  UNL1        0.0660
     44 H           9.5486   20.7466   43.4079 H       1  UNL1        0.0660
     45 H           8.2000   20.8575   42.2303 H       1  UNL1        0.0660
     46 H           3.1508   11.8876   44.5230 H       1  UNL1        0.0326
     47 H           4.2461   13.0702   45.2397 H       1  UNL1        0.0326
     48 H           4.3923    9.8537   44.9304 H       1  UNL1        0.0658
     49 H          10.4249   12.7376   42.9270 H       1  UNL1        0.0660
     50 H          10.3908   10.9932   43.2439 H       1  UNL1        0.0660
     51 H           9.5442   12.1210   44.3557 H       1  UNL1        0.0660
     52 H           8.6624    7.7578   45.0585 H       1  UNL1        0.1166
     53 H           7.9674    7.1460   43.5012 H       1  UNL1        0.1166
@<TRIPOS>BOND
     1     1     2    2
     2     2     3    1
     3     2     4    1
     4     3     5    1
     5     4     6   ar
     6     4     7   ar
     7     5     8    1
     8     6     9    1
     9     6    10   ar
    10     7    11   ar
    11     8    12    1
    12     8    13    1
    13     9    14    1
    14    10    15    1
    15    10    16   ar
    16    12    17    1
    17    12    18    1
    18    13    19   ar
    19    13    20   ar
    20    15    21    1
    21    17    22    1
    22    19    23    1
    23    19    24   ar
    24    20    25   ar
    25    23    26    1
    26    24    27    1
    27    24    28   ar
    28    27    29    1
    29    28    30    1
    30     5     7    1
    31    11    16   ar
    32    20    22    1
    33    25    28   ar
    34    29    30    1
    35     5    31    1
    36     8    32    1
    37    11    33    1
    38    14    34    1
    39    14    35    1
    40    14    36    1
    41    16    37    1
    42    17    38    1
    43    17    39    1
    44    18    40    1
    45    18    41    1
    46    18    42    1
    47    21    43    1
    48    21    44    1
    49    21    45    1
    50    22    46    1
    51    22    47    1
    52    25    48    1
    53    26    49    1
    54    26    50    1
    55    26    51    1
    56    29    52    1
    57    29    53    1
@<TRIPOS>SUBSTRUCTURE
     1 UNL1        1 TEMP              0 ****  ****    0 ROOT


##########                                Name:                  35
##########                DOCK_Rotatable_Bonds:                   1
##########                         Heavy_Atoms:                  12
##########                    Molecular_Weight:             162.145
##########                       Formal_Charge:         0.000100017
##########                     HBond_Acceptors:                   3
##########                        HBond_Donors:                   1
##########                    Continuous_Score:          -25.574089
##########               Continuous_vdw_energy:          -25.444857
##########                Continuous_es_energy:           -0.129232
##########           Internal_energy_repulsive:            0.313153

@<TRIPOS>MOLECULE
35
 18 19 1 0 0
SMALL
GASTEIGER


@<TRIPOS>ATOM
      1 O          21.0682    7.8302   42.9413 O.2     1  UNL1       -0.2452
      2 C          21.6642    8.2933   41.9913 C.ar    1  UNL1        0.3372
      3 O          21.6651    7.6675   40.7877 O.2     1  UNL1       -0.4220
      4 C          22.4292    9.5498   42.0401 C.ar    1  UNL1        0.0236
      5 C          22.3181    8.1275   39.6617 C.ar    1  UNL1        0.1425
      6 C          23.1224   10.0706   40.8955 C.ar    1  UNL1       -0.0443
      7 C          23.0638    9.3561   39.7067 C.ar    1  UNL1        0.0178
      8 C          22.2427    7.3711   38.4429 C.ar    1  UNL1        0.0229
      9 C          23.7085    9.7947   38.5508 C.ar    1  UNL1       -0.0476
     10 C          22.9063    7.8530   37.3141 C.ar    1  UNL1        0.1204
     11 C          23.6280    9.0490   37.3720 C.ar    1  UNL1       -0.0194
     12 O          22.8570    7.1600   36.1401 O.3     1  UNL1       -0.5066
     13 H          22.4322   10.0549   43.0005 H       1  UNL1        0.0689
     14 H          23.6794   11.0021   40.9584 H       1  UNL1        0.0627
     15 H          21.6791    6.4422   38.4044 H       1  UNL1        0.0691
     16 H          24.2782   10.7208   38.5599 H       1  UNL1        0.0626
     17 H          24.1383    9.4083   36.4812 H       1  UNL1        0.0654
     18 H          22.3035    6.3642   36.2429 H       1  UNL1        0.2921
@<TRIPOS>BOND
     1     1     2    2
     2     2     3   ar
     3     2     4   ar
     4     3     5   ar
     5     4     6   ar
     6     5     7   ar
     7     5     8   ar
     8     7     9   ar
     9     8    10   ar
    10     9    11   ar
    11    10    12    1
    12     6     7   ar
    13    10    11   ar
    14     4    13    1
    15     6    14    1
    16     8    15    1
    17     9    16    1
    18    11    17    1
    19    12    18    1
@<TRIPOS>SUBSTRUCTURE
     1 UNL1        1 TEMP              0 ****  ****    0 ROOT


##########                                Name:                  35
##########                DOCK_Rotatable_Bonds:                   1
##########                         Heavy_Atoms:                  12
##########                    Molecular_Weight:             162.145
##########                       Formal_Charge:         0.000100017
##########                     HBond_Acceptors:                   3
##########                        HBond_Donors:                   1
##########                    Continuous_Score:          -25.795050
##########               Continuous_vdw_energy:          -25.568453
##########                Continuous_es_energy:           -0.226597
##########           Internal_energy_repulsive:            0.313103

@<TRIPOS>MOLECULE
35
 18 19 1 0 0
SMALL
GASTEIGER


@<TRIPOS>ATOM
      1 O          21.0955    7.7424   42.9013 O.2     1  UNL1       -0.2452
      2 C          21.6908    8.2400   41.9685 C.ar    1  UNL1        0.3372
      3 O          21.7375    7.6306   40.7574 O.2     1  UNL1       -0.4220
      4 C          22.4069    9.5235   42.0473 C.ar    1  UNL1        0.0236
      5 C          22.3931    8.1296   39.6497 C.ar    1  UNL1        0.1425
      6 C          23.1009   10.0850   40.9226 C.ar    1  UNL1       -0.0443
      7 C          23.0910    9.3846   39.7241 C.ar    1  UNL1        0.0178
      8 C          22.3687    7.3870   38.4204 C.ar    1  UNL1        0.0229
      9 C          23.7398    9.8622   38.5861 C.ar    1  UNL1       -0.0476
     10 C          23.0342    7.9083   37.3103 C.ar    1  UNL1        0.1204
     11 C          23.7091    9.1296   37.3967 C.ar    1  UNL1       -0.0194
     12 O          23.0327    7.2294   36.1271 O.3     1  UNL1       -0.5066
     13 H          22.3732   10.0157   43.0139 H       1  UNL1        0.0689
     14 H          23.6211   11.0359   41.0077 H       1  UNL1        0.0627
     15 H          21.8414    6.4382   38.3597 H       1  UNL1        0.0691
     16 H          24.2740   10.8088   38.6175 H       1  UNL1        0.0626
     17 H          24.2218    9.5195   36.5203 H       1  UNL1        0.0654
     18 H          22.5543    6.3857   36.2246 H       1  UNL1        0.2921
@<TRIPOS>BOND
     1     1     2    2
     2     2     3   ar
     3     2     4   ar
     4     3     5   ar
     5     4     6   ar
     6     5     7   ar
     7     5     8   ar
     8     7     9   ar
     9     8    10   ar
    10     9    11   ar
    11    10    12    1
    12     6     7   ar
    13    10    11   ar
    14     4    13    1
    15     6    14    1
    16     8    15    1
    17     9    16    1
    18    11    17    1
    19    12    18    1
@<TRIPOS>SUBSTRUCTURE
     1 UNL1        1 TEMP              0 ****  ****    0 ROOT


##########                                Name:                  35
##########                DOCK_Rotatable_Bonds:                   1
##########                         Heavy_Atoms:                  12
##########                    Molecular_Weight:             162.145
##########                       Formal_Charge:         0.000100017
##########                     HBond_Acceptors:                   3
##########                        HBond_Donors:                   1
##########                    Continuous_Score:          -25.644184
##########               Continuous_vdw_energy:          -25.499521
##########                Continuous_es_energy:           -0.144664
##########           Internal_energy_repulsive:            0.313063

@<TRIPOS>MOLECULE
35
 18 19 1 0 0
SMALL
GASTEIGER


@<TRIPOS>ATOM
      1 O          21.0415    7.8640   42.9461 O.2     1  UNL1       -0.2452
      2 C          21.6369    8.3408   42.0024 C.ar    1  UNL1        0.3372
      3 O          21.6203    7.7432   40.7848 O.2     1  UNL1       -0.4220
      4 C          22.4202    9.5849   42.0745 C.ar    1  UNL1        0.0236
      5 C          22.2714    8.2202   39.6647 C.ar    1  UNL1        0.1425
      6 C          23.1123   10.1225   40.9371 C.ar    1  UNL1       -0.0443
      7 C          23.0348    9.4369   39.7326 C.ar    1  UNL1        0.0178
      8 C          22.1764    7.4935   38.4293 C.ar    1  UNL1        0.0229
      9 C          23.6772    9.8931   38.5822 C.ar    1  UNL1       -0.0476
     10 C          22.8385    7.9922   37.3069 C.ar    1  UNL1        0.1204
     11 C          23.5775    9.1762   37.3870 C.ar    1  UNL1       -0.0194
     12 O          22.7707    7.3274   36.1176 O.3     1  UNL1       -0.5066
     13 H          22.4374   10.0674   43.0463 H       1  UNL1        0.0689
     14 H          23.6828   11.0444   41.0174 H       1  UNL1        0.0627
     15 H          21.5994    6.5737   38.3736 H       1  UNL1        0.0691
     16 H          24.2601   10.8107   38.6083 H       1  UNL1        0.0626
     17 H          24.0862    9.5490   36.5009 H       1  UNL1        0.0654
     18 H          22.2207    6.5281   36.2105 H       1  UNL1        0.2921
@<TRIPOS>BOND
     1     1     2    2
     2     2     3   ar
     3     2     4   ar
     4     3     5   ar
     5     4     6   ar
     6     5     7   ar
     7     5     8   ar
     8     7     9   ar
     9     8    10   ar
    10     9    11   ar
    11    10    12    1
    12     6     7   ar
    13    10    11   ar
    14     4    13    1
    15     6    14    1
    16     8    15    1
    17     9    16    1
    18    11    17    1
    19    12    18    1
@<TRIPOS>SUBSTRUCTURE
     1 UNL1        1 TEMP              0 ****  ****    0 ROOT


##########                                Name:                  36
##########                DOCK_Rotatable_Bonds:                  10
##########                         Heavy_Atoms:                  31
##########                    Molecular_Weight:             432.384
##########                       Formal_Charge:        -2.38419e-07
##########                     HBond_Acceptors:                  10
##########                        HBond_Donors:                   7
##########                    Continuous_Score:          -39.758915
##########               Continuous_vdw_energy:          -34.810070
##########                Continuous_es_energy:           -4.948843
##########           Internal_energy_repulsive:           20.211184

@<TRIPOS>MOLECULE
36
 51 54 1 0 0
SMALL
GASTEIGER


@<TRIPOS>ATOM
      1 O           1.1532   15.1455   41.8352 O.2     1  UNL1       -0.2869
      2 C           2.0013   14.6047   42.5220 C.ar    1  UNL1        0.1966
      3 C           3.2309   13.9899   42.0054 C.ar    1  UNL1        0.1058
      4 C           1.8747   14.4428   43.9861 C.ar    1  UNL1        0.0288
      5 C           4.0561   13.4187   42.9537 C.ar    1  UNL1        0.1520
      6 C           3.5588   13.8144   40.6112 C.ar    1  UNL1        0.1347
      7 C           2.6281   13.9159   44.6412 C.ar    1  UNL1        0.1392
      8 O           3.5782   13.4269   44.2675 O.2     1  UNL1       -0.4540
      9 C           5.2618   12.7110   42.5398 C.ar    1  UNL1        0.0682
     10 O           2.8048   14.4199   39.6504 O.3     1  UNL1       -0.5058
     11 C           4.5786   12.9533   40.2300 C.ar    1  UNL1        0.0226
     12 C           2.3491   13.7552   46.1238 C.ar    1  UNL1        0.0176
     13 C           5.4218   12.3936   41.1817 C.ar    1  UNL1        0.1296
     14 C           6.4178   12.8282   43.5639 C.3     1  UNL1        0.1193
     15 C           1.1907   14.3115   46.7042 C.ar    1  UNL1       -0.0476
     16 C           3.2433   13.0641   46.9731 C.ar    1  UNL1       -0.0476
     17 O           6.4308   11.6113   40.7263 O.3     1  UNL1       -0.5062
     18 O           6.8478   14.2219   43.5403 O.3     1  UNL1       -0.3609
     19 C           7.7000   11.9111   43.5236 C.3     1  UNL1        0.1139
     20 C           0.9468   14.1896   48.0736 C.ar    1  UNL1       -0.0195
     21 C           2.9884   12.9473   48.3369 C.ar    1  UNL1       -0.0195
     22 C           7.6987   14.5837   42.4187 C.3     1  UNL1        0.1108
     23 O           7.4030   10.5390   43.2435 O.3     1  UNL1       -0.3862
     24 C           8.8484   12.3793   42.5772 C.3     1  UNL1        0.1121
     25 C           1.8442   13.5070   48.8926 C.ar    1  UNL1        0.1169
     26 C           9.0676   13.9035   42.6396 C.3     1  UNL1        0.1117
     27 C           7.7522   16.1179   42.2718 C.3     1  UNL1        0.0729
     28 O          10.0698   11.7415   42.9715 O.3     1  UNL1       -0.3865
     29 O           1.6251   13.3736   50.2338 O.3     1  UNL1       -0.5068
     30 O           9.6283   14.2420   43.9161 O.3     1  UNL1       -0.3865
     31 O           8.4588   16.4969   41.0956 O.3     1  UNL1       -0.3924
     32 H           0.9172   14.7943   44.3534 H       1  UNL1        0.0693
     33 H           3.2294   14.2462   38.7823 H       1  UNL1        0.2922
     34 H           4.7594   12.7658   39.1727 H       1  UNL1        0.0691
     35 H           5.9769   12.6634   44.5515 H       1  UNL1        0.0676
     36 H           0.4788   14.8611   46.0931 H       1  UNL1        0.0626
     37 H           4.1468   12.6001   46.5865 H       1  UNL1        0.0626
     38 H           6.4253   11.6762   39.7493 H       1  UNL1        0.2922
     39 H           8.1141   11.9404   44.5353 H       1  UNL1        0.0649
     40 H           0.0514   14.6365   48.4985 H       1  UNL1        0.0654
     41 H           3.6909   12.4120   48.9722 H       1  UNL1        0.0654
     42 H           7.2656   14.1933   41.4940 H       1  UNL1        0.0646
     43 H           6.6816   10.2757   43.8594 H       1  UNL1        0.2100
     44 H           8.6297   12.1017   41.5440 H       1  UNL1        0.0647
     45 H           9.7644   14.2054   41.8517 H       1  UNL1        0.0647
     46 H           8.2785   16.5299   43.1375 H       1  UNL1        0.0584
     47 H           6.7402   16.5305   42.2504 H       1  UNL1        0.0584
     48 H          10.1582   11.8842   43.9407 H       1  UNL1        0.2100
     49 H           0.7529   13.7214   50.4916 H       1  UNL1        0.2921
     50 H           8.9185   14.1597   44.5792 H       1  UNL1        0.2100
     51 H           7.9786   16.0964   40.3525 H       1  UNL1        0.2095
@<TRIPOS>BOND
     1     1     2    2
     2     2     3   ar
     3     2     4   ar
     4     3     5   ar
     5     3     6   ar
     6     4     7   ar
     7     5     8   ar
     8     5     9   ar
     9     6    10    1
    10     6    11   ar
    11     7    12    1
    12     9    13   ar
    13     9    14    1
    14    12    15   ar
    15    12    16   ar
    16    13    17    1
    17    14    18    1
    18    14    19    1
    19    15    20   ar
    20    16    21   ar
    21    18    22    1
    22    19    23    1
    23    19    24    1
    24    20    25   ar
    25    22    26    1
    26    22    27    1
    27    24    28    1
    28    25    29    1
    29    26    30    1
    30    27    31    1
    31     7     8   ar
    32    11    13   ar
    33    21    25   ar
    34    24    26    1
    35     4    32    1
    36    10    33    1
    37    11    34    1
    38    14    35    1
    39    15    36    1
    40    16    37    1
    41    17    38    1
    42    19    39    1
    43    20    40    1
    44    21    41    1
    45    22    42    1
    46    23    43    1
    47    24    44    1
    48    26    45    1
    49    27    46    1
    50    27    47    1
    51    28    48    1
    52    29    49    1
    53    30    50    1
    54    31    51    1
@<TRIPOS>SUBSTRUCTURE
     1 UNL1        1 TEMP              0 ****  ****    0 ROOT


##########                                Name:                  36
##########                DOCK_Rotatable_Bonds:                  10
##########                         Heavy_Atoms:                  31
##########                    Molecular_Weight:             432.384
##########                       Formal_Charge:        -2.38419e-07
##########                     HBond_Acceptors:                  10
##########                        HBond_Donors:                   7
##########                    Continuous_Score:          -39.708828
##########               Continuous_vdw_energy:          -35.039490
##########                Continuous_es_energy:           -4.669339
##########           Internal_energy_repulsive:           20.310883

@<TRIPOS>MOLECULE
36
 51 54 1 0 0
SMALL
GASTEIGER


@<TRIPOS>ATOM
      1 O           1.1438   15.1854   41.9114 O.2     1  UNL1       -0.2869
      2 C           1.9937   14.6404   42.5924 C.ar    1  UNL1        0.1966
      3 C           3.2216   14.0281   42.0685 C.ar    1  UNL1        0.1058
      4 C           1.8715   14.4699   44.0559 C.ar    1  UNL1        0.0288
      5 C           4.0495   13.4510   43.0109 C.ar    1  UNL1        0.1520
      6 C           3.5453   13.8606   40.6723 C.ar    1  UNL1        0.1347
      7 C           2.6268   13.9389   44.7056 C.ar    1  UNL1        0.1392
      8 O           3.5755   13.4518   44.3262 O.2     1  UNL1       -0.4540
      9 C           5.2537   12.7455   42.5893 C.ar    1  UNL1        0.0682
     10 O           2.7887   14.4721   39.7175 O.3     1  UNL1       -0.5058
     11 C           4.5636   13.0015   40.2831 C.ar    1  UNL1        0.0226
     12 C           2.3521   13.7696   46.1881 C.ar    1  UNL1        0.0176
     13 C           5.4096   12.4360   41.2289 C.ar    1  UNL1        0.1296
     14 C           6.4128   12.8562   43.6107 C.3     1  UNL1        0.1193
     15 C           1.1879   14.3098   46.7722 C.ar    1  UNL1       -0.0476
     16 C           3.2560   13.0864   47.0335 C.ar    1  UNL1       -0.0476
     17 O           6.4169   11.6559   40.7659 O.3     1  UNL1       -0.5062
     18 O           6.8386   14.2515   43.5989 O.3     1  UNL1       -0.3609
     19 C           7.6976   11.9434   43.5572 C.3     1  UNL1        0.1139
     20 C           0.9477   14.1800   48.1415 C.ar    1  UNL1       -0.0195
     21 C           3.0048   12.9617   48.3973 C.ar    1  UNL1       -0.0195
     22 C           7.6845   14.6265   42.4781 C.3     1  UNL1        0.1108
     23 O           7.4036   10.5732   43.2651 O.3     1  UNL1       -0.3862
     24 C           8.8413   12.4241   42.6116 C.3     1  UNL1        0.1121
     25 C           1.8548   13.5055   48.9568 C.ar    1  UNL1        0.1169
     26 C           9.0563   13.9484   42.6878 C.3     1  UNL1        0.1117
     27 C           7.7331   16.1622   42.3458 C.3     1  UNL1        0.0729
     28 O          10.0660   11.7862   42.9956 O.3     1  UNL1       -0.3865
     29 O           1.6394   13.3648   50.2978 O.3     1  UNL1       -0.5068
     30 O           9.6203   14.2762   43.9656 O.3     1  UNL1       -0.3865
     31 O           8.4509   16.5549   41.1808 O.3     1  UNL1       -0.3924
     32 H           0.9153   14.8195   44.4281 H       1  UNL1        0.0693
     33 H           3.1656   14.2389   38.8412 H       1  UNL1        0.2922
     34 H           4.7413   12.8202   39.2242 H       1  UNL1        0.0691
     35 H           5.9757   12.6807   44.5981 H       1  UNL1        0.0676
     36 H           0.4684   14.8528   46.1642 H       1  UNL1        0.0626
     37 H           4.1644   12.6348   46.6438 H       1  UNL1        0.0626
     38 H           6.3528   11.6549   39.7888 H       1  UNL1        0.2922
     39 H           8.1149   11.9643   44.5677 H       1  UNL1        0.0649
     40 H           0.0477   14.6146   48.5694 H       1  UNL1        0.0654
     41 H           3.7147   12.4328   49.0295 H       1  UNL1        0.0654
     42 H           7.2495   14.2437   41.5511 H       1  UNL1        0.0646
     43 H           6.6378   10.3227   43.8306 H       1  UNL1        0.2100
     44 H           8.6201   12.1559   41.5765 H       1  UNL1        0.0647
     45 H           9.7495   14.2599   41.9006 H       1  UNL1        0.0647
     46 H           8.2483   16.5684   43.2208 H       1  UNL1        0.0584
     47 H           6.7195   16.5707   42.3171 H       1  UNL1        0.0584
     48 H          10.3212   12.1730   43.8633 H       1  UNL1        0.2100
     49 H           0.7607   13.6949   50.5572 H       1  UNL1        0.2921
     50 H           8.9554   14.0578   44.6442 H       1  UNL1        0.2100
     51 H           7.9969   16.1359   40.4312 H       1  UNL1        0.2095
@<TRIPOS>BOND
     1     1     2    2
     2     2     3   ar
     3     2     4   ar
     4     3     5   ar
     5     3     6   ar
     6     4     7   ar
     7     5     8   ar
     8     5     9   ar
     9     6    10    1
    10     6    11   ar
    11     7    12    1
    12     9    13   ar
    13     9    14    1
    14    12    15   ar
    15    12    16   ar
    16    13    17    1
    17    14    18    1
    18    14    19    1
    19    15    20   ar
    20    16    21   ar
    21    18    22    1
    22    19    23    1
    23    19    24    1
    24    20    25   ar
    25    22    26    1
    26    22    27    1
    27    24    28    1
    28    25    29    1
    29    26    30    1
    30    27    31    1
    31     7     8   ar
    32    11    13   ar
    33    21    25   ar
    34    24    26    1
    35     4    32    1
    36    10    33    1
    37    11    34    1
    38    14    35    1
    39    15    36    1
    40    16    37    1
    41    17    38    1
    42    19    39    1
    43    20    40    1
    44    21    41    1
    45    22    42    1
    46    23    43    1
    47    24    44    1
    48    26    45    1
    49    27    46    1
    50    27    47    1
    51    28    48    1
    52    29    49    1
    53    30    50    1
    54    31    51    1
@<TRIPOS>SUBSTRUCTURE
     1 UNL1        1 TEMP              0 ****  ****    0 ROOT


##########                                Name:                  36
##########                DOCK_Rotatable_Bonds:                  10
##########                         Heavy_Atoms:                  31
##########                    Molecular_Weight:             432.384
##########                       Formal_Charge:        -2.38419e-07
##########                     HBond_Acceptors:                  10
##########                        HBond_Donors:                   7
##########                    Continuous_Score:          -38.698692
##########               Continuous_vdw_energy:          -34.694958
##########                Continuous_es_energy:           -4.003734
##########           Internal_energy_repulsive:           17.896786

@<TRIPOS>MOLECULE
36
 51 54 1 0 0
SMALL
GASTEIGER


@<TRIPOS>ATOM
      1 O           1.1757   15.2204   41.9839 O.2     1  UNL1       -0.2869
      2 C           2.0069   14.6542   42.6708 C.ar    1  UNL1        0.1966
      3 C           3.2538   14.0667   42.1636 C.ar    1  UNL1        0.1058
      4 C           1.8401   14.4298   44.1226 C.ar    1  UNL1        0.0288
      5 C           4.0549   13.4590   43.1098 C.ar    1  UNL1        0.1520
      6 C           3.6215   13.9518   40.7730 C.ar    1  UNL1        0.1347
      7 C           2.5776   13.8785   44.7758 C.ar    1  UNL1        0.1392
      8 O           3.5403   13.4097   44.4087 O.2     1  UNL1       -0.4540
      9 C           5.2754   12.7744   42.7005 C.ar    1  UNL1        0.0682
     10 O           2.8917   14.5946   39.8178 O.3     1  UNL1       -0.5058
     11 C           4.6560   13.1118   40.3847 C.ar    1  UNL1        0.0226
     12 C           2.2580   13.6540   46.2419 C.ar    1  UNL1        0.0176
     13 C           5.4751   12.5155   41.3353 C.ar    1  UNL1        0.1296
     14 C           6.4015   12.8525   43.7610 C.3     1  UNL1        0.1193
     15 C           3.2420   13.1708   47.1288 C.ar    1  UNL1       -0.0476
     16 C           0.9672   13.9009   46.7626 C.ar    1  UNL1       -0.0476
     17 O           6.5005   11.7572   40.8759 O.3     1  UNL1       -0.5062
     18 O           6.7856   14.2572   43.8495 O.3     1  UNL1       -0.3609
     19 C           7.7141   11.9814   43.6888 C.3     1  UNL1        0.1139
     20 C           2.9417   12.9360   48.4720 C.ar    1  UNL1       -0.0195
     21 C           0.6800   13.6650   48.1044 C.ar    1  UNL1       -0.0195
     22 C           7.6511   14.7263   42.7802 C.3     1  UNL1        0.1108
     23 O           7.4696   10.6248   43.3026 O.3     1  UNL1       -0.3862
     24 C           8.8691   12.5532   42.8097 C.3     1  UNL1        0.1121
     25 C           1.6609   13.1830   48.9629 C.ar    1  UNL1        0.1169
     26 C           9.0360   14.0749   42.9878 C.3     1  UNL1        0.1117
     27 C           7.6573   16.2680   42.7460 C.3     1  UNL1        0.0729
     28 O          10.1009   11.9269   43.1894 O.3     1  UNL1       -0.3865
     29 O           1.3453   12.9627   50.2731 O.3     1  UNL1       -0.5068
     30 O           9.5538   14.3366   44.3001 O.3     1  UNL1       -0.3865
     31 O           6.4271   16.7754   42.2403 O.3     1  UNL1       -0.3924
     32 H           0.8709   14.7616   44.4772 H       1  UNL1        0.0693
     33 H           3.2781   14.3700   38.9435 H       1  UNL1        0.2922
     34 H           4.8675   12.9700   39.3259 H       1  UNL1        0.0691
     35 H           5.9424   12.6025   44.7219 H       1  UNL1        0.0676
     36 H           4.2464   12.9562   46.7722 H       1  UNL1        0.0626
     37 H           0.1681   14.2872   46.1355 H       1  UNL1        0.0626
     38 H           6.3647   11.6447   39.9128 H       1  UNL1        0.2922
     39 H           8.1021   11.9497   44.7107 H       1  UNL1        0.0649
     40 H           3.7151   12.5534   49.1332 H       1  UNL1        0.0654
     41 H          -0.3206   13.8608   48.4837 H       1  UNL1        0.0654
     42 H           7.2538   14.3911   41.8184 H       1  UNL1        0.0646
     43 H           8.2461   10.1014   43.6061 H       1  UNL1        0.2100
     44 H           8.6849   12.3452   41.7537 H       1  UNL1        0.0647
     45 H           9.7413   14.4553   42.2427 H       1  UNL1        0.0647
     46 H           8.4633   16.5958   42.0834 H       1  UNL1        0.0584
     47 H           7.8443   16.6670   43.7464 H       1  UNL1        0.0584
     48 H          10.2777   12.2001   44.1176 H       1  UNL1        0.2100
     49 H           0.3898   13.0602   50.4337 H       1  UNL1        0.2921
     50 H           9.0000   13.8484   44.9365 H       1  UNL1        0.2100
     51 H           6.2896   16.3417   41.3823 H       1  UNL1        0.2095
@<TRIPOS>BOND
     1     1     2    2
     2     2     3   ar
     3     2     4   ar
     4     3     5   ar
     5     3     6   ar
     6     4     7   ar
     7     5     8   ar
     8     5     9   ar
     9     6    10    1
    10     6    11   ar
    11     7    12    1
    12     9    13   ar
    13     9    14    1
    14    12    15   ar
    15    12    16   ar
    16    13    17    1
    17    14    18    1
    18    14    19    1
    19    15    20   ar
    20    16    21   ar
    21    18    22    1
    22    19    23    1
    23    19    24    1
    24    20    25   ar
    25    22    26    1
    26    22    27    1
    27    24    28    1
    28    25    29    1
    29    26    30    1
    30    27    31    1
    31     7     8   ar
    32    11    13   ar
    33    21    25   ar
    34    24    26    1
    35     4    32    1
    36    10    33    1
    37    11    34    1
    38    14    35    1
    39    15    36    1
    40    16    37    1
    41    17    38    1
    42    19    39    1
    43    20    40    1
    44    21    41    1
    45    22    42    1
    46    23    43    1
    47    24    44    1
    48    26    45    1
    49    27    46    1
    50    27    47    1
    51    28    48    1
    52    29    49    1
    53    30    50    1
    54    31    51    1
@<TRIPOS>SUBSTRUCTURE
     1 UNL1        1 TEMP              0 ****  ****    0 ROOT


##########                                Name:                  37
##########                DOCK_Rotatable_Bonds:                   3
##########                         Heavy_Atoms:                   9
##########                    Molecular_Weight:             126.112
##########                       Formal_Charge:         0.000100046
##########                     HBond_Acceptors:                   3
##########                        HBond_Donors:                   3
##########                    Continuous_Score:          -22.211798
##########               Continuous_vdw_energy:          -19.563343
##########                Continuous_es_energy:           -2.648455
##########           Internal_energy_repulsive:            0.103603

@<TRIPOS>MOLECULE
37
 15 15 1 0 0
SMALL
GASTEIGER


@<TRIPOS>ATOM
      1 O          21.7413    7.5845   42.0784 O.3     1  UNL1       -0.5009
      2 C          22.2985    8.4189   41.1473 C.ar    1  UNL1        0.2006
      3 C          22.7352    9.6986   41.5038 C.ar    1  UNL1        0.1620
      4 C          22.4004    7.9954   39.8207 C.ar    1  UNL1        0.1620
      5 O          22.7039   10.1061   42.8065 O.3     1  UNL1       -0.5032
      6 C          23.2428   10.5559   40.5278 C.ar    1  UNL1       -0.0163
      7 O          21.9771    6.7455   39.4843 O.3     1  UNL1       -0.5032
      8 C          22.9177    8.8500   38.8489 C.ar    1  UNL1       -0.0163
      9 C          23.3332   10.1328   39.2023 C.ar    1  UNL1       -0.0546
     10 H          21.5663    6.7173   41.6674 H       1  UNL1        0.2924
     11 H          23.1420   10.9741   42.8810 H       1  UNL1        0.2923
     12 H          23.5817   11.5524   40.8019 H       1  UNL1        0.0655
     13 H          21.6774    6.3188   40.3128 H       1  UNL1        0.2923
     14 H          22.9926    8.5191   37.8156 H       1  UNL1        0.0655
     15 H          23.7346   10.8014   38.4449 H       1  UNL1        0.0620
@<TRIPOS>BOND
     1     1     2    1
     2     2     3   ar
     3     2     4   ar
     4     3     5    1
     5     3     6   ar
     6     4     7    1
     7     4     8   ar
     8     6     9   ar
     9     8     9   ar
    10     1    10    1
    11     5    11    1
    12     6    12    1
    13     7    13    1
    14     8    14    1
    15     9    15    1
@<TRIPOS>SUBSTRUCTURE
     1 UNL1        1 TEMP              0 ****  ****    0 ROOT


##########                                Name:                  37
##########                DOCK_Rotatable_Bonds:                   3
##########                         Heavy_Atoms:                   9
##########                    Molecular_Weight:             126.112
##########                       Formal_Charge:         0.000100046
##########                     HBond_Acceptors:                   3
##########                        HBond_Donors:                   3
##########                    Continuous_Score:          -21.776707
##########               Continuous_vdw_energy:          -19.150501
##########                Continuous_es_energy:           -2.626206
##########           Internal_energy_repulsive:            0.103595

@<TRIPOS>MOLECULE
37
 15 15 1 0 0
SMALL
GASTEIGER


@<TRIPOS>ATOM
      1 O          21.9379    6.8861   39.7421 O.3     1  UNL1       -0.5009
      2 C          22.2497    8.1384   40.1984 C.ar    1  UNL1        0.2006
      3 C          22.7952    9.0976   39.3394 C.ar    1  UNL1        0.1620
      4 C          22.0490    8.4470   41.5453 C.ar    1  UNL1        0.1620
      5 O          22.9381    8.8367   38.0069 O.3     1  UNL1       -0.5032
      6 C          23.1635   10.3469   39.8381 C.ar    1  UNL1       -0.0163
      7 O          21.5123    7.5079   42.3728 O.3     1  UNL1       -0.5032
      8 C          22.4080    9.6998   42.0393 C.ar    1  UNL1       -0.0163
      9 C          22.9711   10.6474   41.1861 C.ar    1  UNL1       -0.0546
     10 H          21.6098    6.3467   40.4855 H       1  UNL1        0.2924
     11 H          23.3377    9.6116   37.5700 H       1  UNL1        0.2923
     12 H          23.5897   11.0943   39.1727 H       1  UNL1        0.0655
     13 H          21.3572    6.7098   41.8275 H       1  UNL1        0.2923
     14 H          22.2542    9.9364   43.0897 H       1  UNL1        0.0655
     15 H          23.2540   11.6241   41.5706 H       1  UNL1        0.0620
@<TRIPOS>BOND
     1     1     2    1
     2     2     3   ar
     3     2     4   ar
     4     3     5    1
     5     3     6   ar
     6     4     7    1
     7     4     8   ar
     8     6     9   ar
     9     8     9   ar
    10     1    10    1
    11     5    11    1
    12     6    12    1
    13     7    13    1
    14     8    14    1
    15     9    15    1
@<TRIPOS>SUBSTRUCTURE
     1 UNL1        1 TEMP              0 ****  ****    0 ROOT


##########                                Name:                  37
##########                DOCK_Rotatable_Bonds:                   3
##########                         Heavy_Atoms:                   9
##########                    Molecular_Weight:             126.112
##########                       Formal_Charge:         0.000100046
##########                     HBond_Acceptors:                   3
##########                        HBond_Donors:                   3
##########                    Continuous_Score:          -21.461800
##########               Continuous_vdw_energy:          -19.234467
##########                Continuous_es_energy:           -2.227333
##########           Internal_energy_repulsive:            0.103605

@<TRIPOS>MOLECULE
37
 15 15 1 0 0
SMALL
GASTEIGER


@<TRIPOS>ATOM
      1 O          22.0093    6.7857   39.6505 O.3     1  UNL1       -0.5009
      2 C          22.3176    8.0532   40.0653 C.ar    1  UNL1        0.2006
      3 C          22.8723    8.9811   39.1783 C.ar    1  UNL1        0.1620
      4 C          22.1042    8.4093   41.3984 C.ar    1  UNL1        0.1620
      5 O          23.0278    8.6733   37.8573 O.3     1  UNL1       -0.5032
      6 C          23.2367   10.2471   39.6362 C.ar    1  UNL1       -0.0163
      7 O          21.5588    7.5003   42.2534 O.3     1  UNL1       -0.5032
      8 C          22.4593    9.6785   41.8513 C.ar    1  UNL1       -0.0163
      9 C          23.0314   10.5951   40.9707 C.ar    1  UNL1       -0.0546
     10 H          21.6569    6.2784   40.4054 H       1  UNL1        0.2924
     11 H          22.7453    7.7520   37.7077 H       1  UNL1        0.2923
     12 H          23.6698   10.9704   38.9489 H       1  UNL1        0.0655
     13 H          21.4299    6.6761   41.7410 H       1  UNL1        0.2923
     14 H          22.2956    9.9521   42.8911 H       1  UNL1        0.0655
     15 H          23.3114   11.5847   41.3231 H       1  UNL1        0.0620
@<TRIPOS>BOND
     1     1     2    1
     2     2     3   ar
     3     2     4   ar
     4     3     5    1
     5     3     6   ar
     6     4     7    1
     7     4     8   ar
     8     6     9   ar
     9     8     9   ar
    10     1    10    1
    11     5    11    1
    12     6    12    1
    13     7    13    1
    14     8    14    1
    15     9    15    1
@<TRIPOS>SUBSTRUCTURE
     1 UNL1        1 TEMP              0 ****  ****    0 ROOT


##########                                Name:                  39
##########                DOCK_Rotatable_Bonds:                   3
##########                         Heavy_Atoms:                   9
##########                    Molecular_Weight:             126.112
##########                       Formal_Charge:         2.98023e-08
##########                     HBond_Acceptors:                   3
##########                        HBond_Donors:                   3
##########                    Continuous_Score:          -19.984907
##########               Continuous_vdw_energy:          -18.656866
##########                Continuous_es_energy:           -1.328042
##########           Internal_energy_repulsive:            0.110244

@<TRIPOS>MOLECULE
39
 15 15 1 0 0
SMALL
GASTEIGER


@<TRIPOS>ATOM
      1 O          21.7851    6.7808   38.5846 O.3     1  UNL1       -0.5065
      2 C          22.2555    7.8689   39.2649 C.ar    1  UNL1        0.1238
      3 C          23.0603    8.8207   38.6343 C.ar    1  UNL1        0.0215
      4 C          21.9230    8.0273   40.6095 C.ar    1  UNL1        0.0215
      5 C          23.5280    9.9255   39.3521 C.ar    1  UNL1        0.1238
      6 C          22.3928    9.1311   41.3216 C.ar    1  UNL1        0.1238
      7 O          24.3109   10.8653   38.7539 O.3     1  UNL1       -0.5065
      8 C          23.1946   10.0790   40.6944 C.ar    1  UNL1        0.0215
      9 O          22.0686    9.2876   42.6323 O.3     1  UNL1       -0.5065
     10 H          22.0929    6.7821   37.6605 H       1  UNL1        0.2921
     11 H          23.3228    8.7020   37.5858 H       1  UNL1        0.0691
     12 H          21.2957    7.2865   41.1001 H       1  UNL1        0.0691
     13 H          24.5277   11.5599   39.3924 H       1  UNL1        0.2921
     14 H          23.5589   10.9392   41.2521 H       1  UNL1        0.0691
     15 H          22.4476   10.1248   42.9388 H       1  UNL1        0.2921
@<TRIPOS>BOND
     1     1     2    1
     2     2     3   ar
     3     2     4   ar
     4     3     5   ar
     5     4     6   ar
     6     5     7    1
     7     5     8   ar
     8     6     9    1
     9     6     8   ar
    10     1    10    1
    11     3    11    1
    12     4    12    1
    13     7    13    1
    14     8    14    1
    15     9    15    1
@<TRIPOS>SUBSTRUCTURE
     1 UNL1        1 TEMP              0 ****  ****    0 ROOT


##########                                Name:                  39
##########                DOCK_Rotatable_Bonds:                   3
##########                         Heavy_Atoms:                   9
##########                    Molecular_Weight:             126.112
##########                       Formal_Charge:         2.98023e-08
##########                     HBond_Acceptors:                   3
##########                        HBond_Donors:                   3
##########                    Continuous_Score:          -19.933588
##########               Continuous_vdw_energy:          -18.551189
##########                Continuous_es_energy:           -1.382398
##########           Internal_energy_repulsive:            0.110235

@<TRIPOS>MOLECULE
39
 15 15 1 0 0
SMALL
GASTEIGER


@<TRIPOS>ATOM
      1 O          24.4971   10.7569   38.7949 O.3     1  UNL1       -0.5065
      2 C          23.6615    9.8555   39.3927 C.ar    1  UNL1        0.1238
      3 C          23.2686   10.0098   40.7243 C.ar    1  UNL1        0.0215
      4 C          23.1957    8.7666   38.6570 C.ar    1  UNL1        0.0215
      5 C          22.4123    9.0744   41.3125 C.ar    1  UNL1        0.1238
      6 C          22.3419    7.8355   39.2487 C.ar    1  UNL1        0.1238
      7 O          22.0159    9.2096   42.6080 O.3     1  UNL1       -0.5065
      8 C          21.9508    7.9884   40.5748 C.ar    1  UNL1        0.0215
      9 O          21.8861    6.7740   38.5324 O.3     1  UNL1       -0.5065
     10 H          24.7187   11.4876   39.3994 H       1  UNL1        0.2921
     11 H          23.6289   10.8570   41.3027 H       1  UNL1        0.0691
     12 H          23.5011    8.6471   37.6199 H       1  UNL1        0.0691
     13 H          22.4335    9.9930   42.9942 H       1  UNL1        0.2921
     14 H          21.2841    7.2611   41.0333 H       1  UNL1        0.0691
     15 H          22.2978    6.8027   37.6559 H       1  UNL1        0.2921
@<TRIPOS>BOND
     1     1     2    1
     2     2     3   ar
     3     2     4   ar
     4     3     5   ar
     5     4     6   ar
     6     5     7    1
     7     5     8   ar
     8     6     9    1
     9     6     8   ar
    10     1    10    1
    11     3    11    1
    12     4    12    1
    13     7    13    1
    14     8    14    1
    15     9    15    1
@<TRIPOS>SUBSTRUCTURE
     1 UNL1        1 TEMP              0 ****  ****    0 ROOT


##########                                Name:                  39
##########                DOCK_Rotatable_Bonds:                   3
##########                         Heavy_Atoms:                   9
##########                    Molecular_Weight:             126.112
##########                       Formal_Charge:         2.98023e-08
##########                     HBond_Acceptors:                   3
##########                        HBond_Donors:                   3
##########                    Continuous_Score:          -19.933262
##########               Continuous_vdw_energy:          -18.564680
##########                Continuous_es_energy:           -1.368581
##########           Internal_energy_repulsive:            0.110240

@<TRIPOS>MOLECULE
39
 15 15 1 0 0
SMALL
GASTEIGER


@<TRIPOS>ATOM
      1 O          24.4647   10.8290   39.0467 O.3     1  UNL1       -0.5065
      2 C          23.6226    9.8901   39.5735 C.ar    1  UNL1        0.1238
      3 C          23.1960    8.7976   38.8147 C.ar    1  UNL1        0.0215
      4 C          23.1862   10.0290   40.8903 C.ar    1  UNL1        0.0215
      5 C          22.3352    7.8505   39.3770 C.ar    1  UNL1        0.1238
      6 C          22.3267    9.0814   41.4467 C.ar    1  UNL1        0.1238
      7 O          21.9110    6.7773   38.6542 O.3     1  UNL1       -0.5065
      8 C          21.9012    7.9936   40.6915 C.ar    1  UNL1        0.0215
      9 O          21.9013    9.2148   42.7307 O.3     1  UNL1       -0.5065
     10 H          24.6528   11.5353   39.6903 H       1  UNL1        0.2921
     11 H          23.5331    8.6846   37.7872 H       1  UNL1        0.0691
     12 H          23.5192   10.8793   41.4813 H       1  UNL1        0.0691
     13 H          22.2511    6.8412   37.7501 H       1  UNL1        0.2921
     14 H          21.2315    7.2557   41.1283 H       1  UNL1        0.0691
     15 H          22.2661   10.0393   43.0851 H       1  UNL1        0.2921
@<TRIPOS>BOND
     1     1     2    1
     2     2     3   ar
     3     2     4   ar
     4     3     5   ar
     5     4     6   ar
     6     5     7    1
     7     5     8   ar
     8     6     9    1
     9     6     8   ar
    10     1    10    1
    11     3    11    1
    12     4    12    1
    13     7    13    1
    14     8    14    1
    15     9    15    1
@<TRIPOS>SUBSTRUCTURE
     1 UNL1        1 TEMP              0 ****  ****    0 ROOT


##########                                Name:                  40
##########                DOCK_Rotatable_Bonds:                   3
##########                         Heavy_Atoms:                  10
##########                    Molecular_Weight:             138.123
##########                       Formal_Charge:         9.99868e-05
##########                     HBond_Acceptors:                   3
##########                        HBond_Donors:                   2
##########                    Continuous_Score:          -22.597679
##########               Continuous_vdw_energy:          -20.570181
##########                Continuous_es_energy:           -2.027499
##########           Internal_energy_repulsive:            3.269771

@<TRIPOS>MOLECULE
40
 16 16 1 0 0
SMALL
GASTEIGER


@<TRIPOS>ATOM
      1 O          22.7334    9.9079   42.6860 O.2     1  UNL1       -0.2450
      2 C          22.7216   10.2559   41.5221 C.2     1  UNL1        0.3404
      3 O          22.7717   11.5256   41.2238 O.3     1  UNL1       -0.4770
      4 C          22.6360    9.3090   40.3411 C.ar    1  UNL1        0.1001
      5 C          22.1881    7.9830   40.4941 C.ar    1  UNL1        0.1308
      6 C          23.0068    9.7362   39.0553 C.ar    1  UNL1       -0.0442
      7 O          21.8061    7.4908   41.7060 O.3     1  UNL1       -0.5059
      8 C          22.1133    7.1268   39.3956 C.ar    1  UNL1       -0.0194
      9 C          22.9336    8.8749   37.9624 C.ar    1  UNL1       -0.0608
     10 C          22.4849    7.5698   38.1311 C.ar    1  UNL1       -0.0583
     11 H          22.7679   11.5752   40.2576 H       1  UNL1        0.2954
     12 H          23.3669   10.7466   38.8818 H       1  UNL1        0.0627
     13 H          21.5582    6.5486   41.5835 H       1  UNL1        0.2922
     14 H          21.7611    6.1060   39.5262 H       1  UNL1        0.0654
     15 H          23.2280    9.2233   36.9752 H       1  UNL1        0.0618
     16 H          22.4253    6.8974   37.2786 H       1  UNL1        0.0619
@<TRIPOS>BOND
     1     1     2    2
     2     2     3    1
     3     2     4    1
     4     4     5   ar
     5     4     6   ar
     6     5     7    1
     7     5     8   ar
     8     6     9   ar
     9     8    10   ar
    10     9    10   ar
    11     3    11    1
    12     6    12    1
    13     7    13    1
    14     8    14    1
    15     9    15    1
    16    10    16    1
@<TRIPOS>SUBSTRUCTURE
     1 UNL1        1 TEMP              0 ****  ****    0 ROOT


##########                                Name:                  40
##########                DOCK_Rotatable_Bonds:                   3
##########                         Heavy_Atoms:                  10
##########                    Molecular_Weight:             138.123
##########                       Formal_Charge:         9.99868e-05
##########                     HBond_Acceptors:                   3
##########                        HBond_Donors:                   2
##########                    Continuous_Score:          -21.412071
##########               Continuous_vdw_energy:          -19.722538
##########                Continuous_es_energy:           -1.689533
##########           Internal_energy_repulsive:            3.819240

@<TRIPOS>MOLECULE
40
 16 16 1 0 0
SMALL
GASTEIGER


@<TRIPOS>ATOM
      1 O          22.7054   11.4033   41.4410 O.2     1  UNL1       -0.2450
      2 C          22.8823   10.2029   41.4987 C.2     1  UNL1        0.3404
      3 O          23.2483    9.6544   42.6251 O.3     1  UNL1       -0.4770
      4 C          22.7229    9.2517   40.3289 C.ar    1  UNL1        0.1001
      5 C          22.2366    7.9426   40.5081 C.ar    1  UNL1        0.1308
      6 C          23.0616    9.6576   39.0274 C.ar    1  UNL1       -0.0442
      7 O          21.8818    7.4717   41.7366 O.3     1  UNL1       -0.5059
      8 C          22.0939    7.0822   39.4198 C.ar    1  UNL1       -0.0194
      9 C          22.9207    8.7920   37.9446 C.ar    1  UNL1       -0.0608
     10 C          22.4348    7.5038   38.1393 C.ar    1  UNL1       -0.0583
     11 H          23.3316   10.3779   43.2622 H       1  UNL1        0.2954
     12 H          23.4490   10.6540   38.8333 H       1  UNL1        0.0627
     13 H          21.5981    6.5377   41.6304 H       1  UNL1        0.2922
     14 H          21.7127    6.0746   39.5708 H       1  UNL1        0.0654
     15 H          23.1911    9.1236   36.9449 H       1  UNL1        0.0618
     16 H          22.3223    6.8283   37.2948 H       1  UNL1        0.0619
@<TRIPOS>BOND
     1     1     2    2
     2     2     3    1
     3     2     4    1
     4     4     5   ar
     5     4     6   ar
     6     5     7    1
     7     5     8   ar
     8     6     9   ar
     9     8    10   ar
    10     9    10   ar
    11     3    11    1
    12     6    12    1
    13     7    13    1
    14     8    14    1
    15     9    15    1
    16    10    16    1
@<TRIPOS>SUBSTRUCTURE
     1 UNL1        1 TEMP              0 ****  ****    0 ROOT


##########                                Name:                  40
##########                DOCK_Rotatable_Bonds:                   3
##########                         Heavy_Atoms:                  10
##########                    Molecular_Weight:             138.123
##########                       Formal_Charge:         9.99868e-05
##########                     HBond_Acceptors:                   3
##########                        HBond_Donors:                   2
##########                    Continuous_Score:          -23.108778
##########               Continuous_vdw_energy:          -20.836660
##########                Continuous_es_energy:           -2.272117
##########           Internal_energy_repulsive:            1.767113

@<TRIPOS>MOLECULE
40
 16 16 1 0 0
SMALL
GASTEIGER


@<TRIPOS>ATOM
      1 O          22.9982   10.0016   42.6573 O.2     1  UNL1       -0.2450
      2 C          22.7516   10.3110   41.5089 C.2     1  UNL1        0.3404
      3 O          22.4488   11.5475   41.2206 O.3     1  UNL1       -0.4770
      4 C          22.7508    9.3471   40.3385 C.ar    1  UNL1        0.1001
      5 C          22.2493    8.0376   40.4662 C.ar    1  UNL1        0.1308
      6 C          23.2566    9.7413   39.0886 C.ar    1  UNL1       -0.0442
      7 O          21.7373    7.5777   41.6423 O.3     1  UNL1       -0.5059
      8 C          22.2540    7.1656   39.3778 C.ar    1  UNL1       -0.0194
      9 C          23.2622    8.8640   38.0061 C.ar    1  UNL1       -0.0608
     10 C          22.7591    7.5756   38.1489 C.ar    1  UNL1       -0.0583
     11 H          22.2045   11.5534   40.2843 H       1  UNL1        0.2954
     12 H          23.6629   10.7374   38.9365 H       1  UNL1        0.0627
     13 H          21.4805    6.6390   41.5119 H       1  UNL1        0.2922
     14 H          21.8594    6.1578   39.4882 H       1  UNL1        0.0654
     15 H          23.6608    9.1866   37.0471 H       1  UNL1        0.0618
     16 H          22.7609    6.8910   37.3044 H       1  UNL1        0.0619
@<TRIPOS>BOND
     1     1     2    2
     2     2     3    1
     3     2     4    1
     4     4     5   ar
     5     4     6   ar
     6     5     7    1
     7     5     8   ar
     8     6     9   ar
     9     8    10   ar
    10     9    10   ar
    11     3    11    1
    12     6    12    1
    13     7    13    1
    14     8    14    1
    15     9    15    1
    16    10    16    1
@<TRIPOS>SUBSTRUCTURE
     1 UNL1        1 TEMP              0 ****  ****    0 ROOT


##########                                Name:                  41
##########                DOCK_Rotatable_Bonds:                   3
##########                         Heavy_Atoms:                  11
##########                    Molecular_Weight:              152.15
##########                       Formal_Charge:         -8.9407e-08
##########                     HBond_Acceptors:                   3
##########                        HBond_Donors:                   1
##########                    Continuous_Score:          -22.589741
##########               Continuous_vdw_energy:          -22.220541
##########                Continuous_es_energy:           -0.369199
##########           Internal_energy_repulsive:            5.630565

@<TRIPOS>MOLECULE
41
 19 19 1 0 0
SMALL
GASTEIGER


@<TRIPOS>ATOM
      1 O          23.1970    9.6292   41.3127 O.2     1  UNL1       -0.2448
      2 C          22.6855    8.8453   40.5349 C.2     1  UNL1        0.3425
      3 O          21.7251    7.9748   40.9291 O.3     1  UNL1       -0.4644
      4 C          23.0522    8.7985   39.0663 C.ar    1  UNL1        0.1002
      5 C          21.5440    7.7022   42.3436 C.3     1  UNL1        0.0820
      6 C          22.7287    7.6977   38.2458 C.ar    1  UNL1        0.1308
      7 C          23.7305    9.8818   38.4874 C.ar    1  UNL1       -0.0442
      8 O          22.0964    6.5830   38.7233 O.3     1  UNL1       -0.5059
      9 C          23.0664    7.7019   36.8933 C.ar    1  UNL1       -0.0194
     10 C          24.0631    9.8786   37.1305 C.ar    1  UNL1       -0.0608
     11 C          23.7286    8.7887   36.3340 C.ar    1  UNL1       -0.0583
     12 H          20.5347    7.3147   42.5025 H       1  UNL1        0.0661
     13 H          21.6691    8.6188   42.9276 H       1  UNL1        0.0661
     14 H          22.2775    6.9577   42.6654 H       1  UNL1        0.0661
     15 H          23.9979   10.7483   39.0831 H       1  UNL1        0.0627
     16 H          22.3078    6.4752   39.6739 H       1  UNL1        0.2922
     17 H          22.8141    6.8471   36.2690 H       1  UNL1        0.0654
     18 H          24.5810   10.7291   36.6981 H       1  UNL1        0.0618
     19 H          23.9878    8.7839   35.2781 H       1  UNL1        0.0619
@<TRIPOS>BOND
     1     1     2    2
     2     2     3    1
     3     2     4    1
     4     3     5    1
     5     4     6   ar
     6     4     7   ar
     7     6     8    1
     8     6     9   ar
     9     7    10   ar
    10     9    11   ar
    11    10    11   ar
    12     5    12    1
    13     5    13    1
    14     5    14    1
    15     7    15    1
    16     8    16    1
    17     9    17    1
    18    10    18    1
    19    11    19    1
@<TRIPOS>SUBSTRUCTURE
     1 UNL1        1 TEMP              0 ****  ****    0 ROOT


##########                                Name:                  41
##########                DOCK_Rotatable_Bonds:                   3
##########                         Heavy_Atoms:                  11
##########                    Molecular_Weight:              152.15
##########                       Formal_Charge:         -8.9407e-08
##########                     HBond_Acceptors:                   3
##########                        HBond_Donors:                   1
##########                    Continuous_Score:          -22.579247
##########               Continuous_vdw_energy:          -21.394070
##########                Continuous_es_energy:           -1.185176
##########           Internal_energy_repulsive:            4.627742

@<TRIPOS>MOLECULE
41
 19 19 1 0 0
SMALL
GASTEIGER


@<TRIPOS>ATOM
      1 O          22.4440    9.9075   42.8379 O.2     1  UNL1       -0.2448
      2 C          22.6592   10.2628   41.6939 C.2     1  UNL1        0.3425
      3 O          22.9951   11.5410   41.3962 O.3     1  UNL1       -0.4644
      4 C          22.6019    9.3078   40.5200 C.ar    1  UNL1        0.1002
      5 C          23.0464   12.5324   42.4557 C.3     1  UNL1        0.0820
      6 C          22.1756    7.9704   40.6594 C.ar    1  UNL1        0.1308
      7 C          22.9758    9.7560   39.2442 C.ar    1  UNL1       -0.0442
      8 O          21.8202    7.4321   41.8654 O.3     1  UNL1       -0.5059
      9 C          22.1180    7.1285   39.5500 C.ar    1  UNL1       -0.0194
     10 C          22.9128    8.9061   38.1372 C.ar    1  UNL1       -0.0608
     11 C          22.4816    7.5929   38.2913 C.ar    1  UNL1       -0.0583
     12 H          23.6807   13.3617   42.1334 H       1  UNL1        0.0661
     13 H          23.4673   12.0957   43.3663 H       1  UNL1        0.0661
     14 H          22.0362   12.8998   42.6565 H       1  UNL1        0.0661
     15 H          23.3096   10.7775   39.0933 H       1  UNL1        0.0627
     16 H          21.5075    6.5137   41.7286 H       1  UNL1        0.2922
     17 H          21.7894    6.0978   39.6682 H       1  UNL1        0.0654
     18 H          23.1987    9.2727   37.1563 H       1  UNL1        0.0618
     19 H          22.4332    6.9296   37.4312 H       1  UNL1        0.0619
@<TRIPOS>BOND
     1     1     2    2
     2     2     3    1
     3     2     4    1
     4     3     5    1
     5     4     6   ar
     6     4     7   ar
     7     6     8    1
     8     6     9   ar
     9     7    10   ar
    10     9    11   ar
    11    10    11   ar
    12     5    12    1
    13     5    13    1
    14     5    14    1
    15     7    15    1
    16     8    16    1
    17     9    17    1
    18    10    18    1
    19    11    19    1
@<TRIPOS>SUBSTRUCTURE
     1 UNL1        1 TEMP              0 ****  ****    0 ROOT


##########                                Name:                  41
##########                DOCK_Rotatable_Bonds:                   3
##########                         Heavy_Atoms:                  11
##########                    Molecular_Weight:              152.15
##########                       Formal_Charge:         -8.9407e-08
##########                     HBond_Acceptors:                   3
##########                        HBond_Donors:                   1
##########                    Continuous_Score:          -22.788933
##########               Continuous_vdw_energy:          -22.934034
##########                Continuous_es_energy:            0.145102
##########           Internal_energy_repulsive:            6.226687

@<TRIPOS>MOLECULE
41
 19 19 1 0 0
SMALL
GASTEIGER


@<TRIPOS>ATOM
      1 O          21.9963    6.5828   38.6338 O.2     1  UNL1       -0.2448
      2 C          22.4593    7.7083   38.6415 C.2     1  UNL1        0.3425
      3 O          22.9151    8.2989   37.5107 O.3     1  UNL1       -0.4644
      4 C          22.5350    8.5493   39.8987 C.ar    1  UNL1        0.1002
      5 C          22.5483    7.7481   36.2183 C.3     1  UNL1        0.0820
      6 C          23.2124    9.7860   39.9357 C.ar    1  UNL1        0.1308
      7 C          21.9095    8.0993   41.0712 C.ar    1  UNL1       -0.0442
      8 O          23.8777   10.2946   38.8544 O.3     1  UNL1       -0.5059
      9 C          23.2422   10.5399   41.1078 C.ar    1  UNL1       -0.0194
     10 C          21.9422    8.8624   42.2410 C.ar    1  UNL1       -0.0608
     11 C          22.6073   10.0837   42.2573 C.ar    1  UNL1       -0.0583
     12 H          22.6597    8.5253   35.4585 H       1  UNL1        0.0661
     13 H          21.5084    7.4083   36.2300 H       1  UNL1        0.0661
     14 H          23.2076    6.9080   35.9829 H       1  UNL1        0.0661
     15 H          21.3776    7.1536   41.0857 H       1  UNL1        0.0627
     16 H          24.0918    9.5656   38.2358 H       1  UNL1        0.2922
     17 H          23.7690   11.4918   41.1267 H       1  UNL1        0.0654
     18 H          21.4459    8.5019   43.1366 H       1  UNL1        0.0618
     19 H          22.6350   10.6784   43.1670 H       1  UNL1        0.0619
@<TRIPOS>BOND
     1     1     2    2
     2     2     3    1
     3     2     4    1
     4     3     5    1
     5     4     6   ar
     6     4     7   ar
     7     6     8    1
     8     6     9   ar
     9     7    10   ar
    10     9    11   ar
    11    10    11   ar
    12     5    12    1
    13     5    13    1
    14     5    14    1
    15     7    15    1
    16     8    16    1
    17     9    17    1
    18    10    18    1
    19    11    19    1
@<TRIPOS>SUBSTRUCTURE
     1 UNL1        1 TEMP              0 ****  ****    0 ROOT


##########                                Name:                  42
##########                DOCK_Rotatable_Bonds:                   9
##########                         Heavy_Atoms:                  20
##########                    Molecular_Weight:             286.282
##########                       Formal_Charge:         1.49012e-07
##########                     HBond_Acceptors:                   7
##########                        HBond_Donors:                   5
##########                    Continuous_Score:          -34.670376
##########               Continuous_vdw_energy:          -30.483519
##########                Continuous_es_energy:           -4.186859
##########           Internal_energy_repulsive:            5.930856

@<TRIPOS>MOLECULE
42
 38 39 1 0 0
SMALL
GASTEIGER


@<TRIPOS>ATOM
      1 O          13.6268   12.1265   42.5314 O.3     1  UNL1       -0.3313
      2 C          14.6567   12.7015   43.3784 C.3     1  UNL1        0.2308
      3 C          12.3686   12.8523   42.4378 C.3     1  UNL1        0.1140
      4 O          15.0870   13.9752   42.8174 O.3     1  UNL1       -0.4605
      5 C          14.0739   12.8201   44.8208 C.3     1  UNL1        0.1454
      6 C          11.7585   12.9820   43.8616 C.3     1  UNL1        0.1120
      7 C          11.4509   12.0457   41.4921 C.3     1  UNL1        0.0731
      8 C          16.0734   14.1236   41.8494 C.ar    1  UNL1        0.1293
      9 O          14.9786   13.4012   45.7600 O.3     1  UNL1       -0.3829
     10 C          12.7592   13.6227   44.8424 C.3     1  UNL1        0.1152
     11 O          10.5801   13.7862   43.8615 O.3     1  UNL1       -0.3865
     12 O          11.1795   10.7577   42.0458 O.3     1  UNL1       -0.3924
     13 C          16.9547   15.2130   41.9239 C.ar    1  UNL1        0.0196
     14 C          16.2136   13.2061   40.7976 C.ar    1  UNL1       -0.0195
     15 O          12.9857   15.0117   44.5286 O.3     1  UNL1       -0.3864
     16 C          18.0055   15.3140   41.0066 C.ar    1  UNL1       -0.0529
     17 C          16.7783   16.3180   42.9584 C.3     1  UNL1        0.0727
     18 C          17.2694   13.3079   39.8995 C.ar    1  UNL1       -0.0583
     19 C          18.1777   14.3540   40.0138 C.ar    1  UNL1       -0.0612
     20 O          16.1240   17.4473   42.3784 O.3     1  UNL1       -0.3903
     21 H          15.5110   12.0088   43.3491 H       1  UNL1        0.1084
     22 H          12.5649   13.8393   42.0088 H       1  UNL1        0.0647
     23 H          13.8548   11.8041   45.1613 H       1  UNL1        0.0683
     24 H          11.4988   11.9822   44.2225 H       1  UNL1        0.0647
     25 H          11.9397   11.9253   40.5214 H       1  UNL1        0.0584
     26 H          10.5084   12.5800   41.3437 H       1  UNL1        0.0584
     27 H          15.4716   12.6745   46.1847 H       1  UNL1        0.2102
     28 H          12.3343   13.5651   45.8485 H       1  UNL1        0.0648
     29 H          10.3685   13.9536   44.7976 H       1  UNL1        0.2100
     30 H          11.9147   10.5517   42.6658 H       1  UNL1        0.2095
     31 H          15.5185   12.3805   40.6726 H       1  UNL1        0.0654
     32 H          12.9166   15.1356   43.5566 H       1  UNL1        0.2100
     33 H          18.7031   16.1461   41.0688 H       1  UNL1        0.0622
     34 H          17.7375   16.6368   43.3728 H       1  UNL1        0.0608
     35 H          16.1642   15.9508   43.7844 H       1  UNL1        0.0608
     36 H          17.3882   12.5635   39.1162 H       1  UNL1        0.0619
     37 H          19.0103   14.4290   39.3194 H       1  UNL1        0.0618
     38 H          15.6433   17.9008   43.0909 H       1  UNL1        0.2098
@<TRIPOS>BOND
     1     1     2    1
     2     1     3    1
     3     2     4    1
     4     2     5    1
     5     3     6    1
     6     3     7    1
     7     4     8    1
     8     5     9    1
     9     5    10    1
    10     6    11    1
    11     7    12    1
    12     8    13   ar
    13     8    14   ar
    14    10    15    1
    15    13    16   ar
    16    13    17    1
    17    14    18   ar
    18    16    19   ar
    19    17    20    1
    20     6    10    1
    21    18    19   ar
    22     2    21    1
    23     3    22    1
    24     5    23    1
    25     6    24    1
    26     7    25    1
    27     7    26    1
    28     9    27    1
    29    10    28    1
    30    11    29    1
    31    12    30    1
    32    14    31    1
    33    15    32    1
    34    16    33    1
    35    17    34    1
    36    17    35    1
    37    18    36    1
    38    19    37    1
    39    20    38    1
@<TRIPOS>SUBSTRUCTURE
     1 UNL1        1 TEMP              0 ****  ****    0 ROOT


##########                                Name:                  42
##########                DOCK_Rotatable_Bonds:                   9
##########                         Heavy_Atoms:                  20
##########                    Molecular_Weight:             286.282
##########                       Formal_Charge:         1.49012e-07
##########                     HBond_Acceptors:                   7
##########                        HBond_Donors:                   5
##########                    Continuous_Score:          -34.981804
##########               Continuous_vdw_energy:          -30.845383
##########                Continuous_es_energy:           -4.136422
##########           Internal_energy_repulsive:            6.067798

@<TRIPOS>MOLECULE
42
 38 39 1 0 0
SMALL
GASTEIGER


@<TRIPOS>ATOM
      1 O          13.1294   12.4240   42.0474 O.3     1  UNL1       -0.3313
      2 C          14.4355   12.5472   42.6698 C.3     1  UNL1        0.2308
      3 C          12.0836   13.3156   42.5268 C.3     1  UNL1        0.1140
      4 O          14.9947   13.8567   42.3622 O.3     1  UNL1       -0.4605
      5 C          14.2599   12.2870   44.1980 C.3     1  UNL1        0.1454
      6 C          11.8802   13.0757   44.0490 C.3     1  UNL1        0.1120
      7 C          10.8071   12.9903   41.7195 C.3     1  UNL1        0.0731
      8 C          16.0673   14.0811   41.5071 C.ar    1  UNL1        0.1293
      9 O          15.4715   12.4050   44.9439 O.3     1  UNL1       -0.3829
     10 C          13.2059   13.2226   44.8201 C.3     1  UNL1        0.1152
     11 O          10.9499   14.0000   44.6111 O.3     1  UNL1       -0.3865
     12 O          10.9870   11.7858   40.9738 O.3     1  UNL1       -0.3924
     13 C          16.8546   15.2304   41.6747 C.ar    1  UNL1        0.0196
     14 C          16.3869   13.1818   40.4790 C.ar    1  UNL1       -0.0195
     15 O          13.6585   14.5916   44.8304 O.3     1  UNL1       -0.3864
     16 C          17.9889   15.4118   40.8771 C.ar    1  UNL1       -0.0529
     17 C          16.4875   16.3141   42.6813 C.3     1  UNL1        0.0727
     18 C          17.5241   13.3643   39.7010 C.ar    1  UNL1       -0.0583
     19 C          18.3368   14.4723   39.9111 C.ar    1  UNL1       -0.0612
     20 O          15.8475   17.4101   42.0262 O.3     1  UNL1       -0.3903
     21 H          15.0780   11.7836   42.2064 H       1  UNL1        0.1084
     22 H          12.3889   14.3484   42.3345 H       1  UNL1        0.0647
     23 H          13.9053   11.2583   44.3084 H       1  UNL1        0.0683
     24 H          11.4958   12.0617   44.1943 H       1  UNL1        0.0647
     25 H          10.5892   13.8115   41.0311 H       1  UNL1        0.0584
     26 H           9.9583   12.8703   42.3984 H       1  UNL1        0.0584
     27 H          15.2887   12.1066   45.8545 H       1  UNL1        0.2102
     28 H          13.0343   12.9123   45.8547 H       1  UNL1        0.0648
     29 H          10.7759   13.6888   45.5177 H       1  UNL1        0.2100
     30 H          11.9024   11.8052   40.6146 H       1  UNL1        0.2095
     31 H          15.7709   12.3092   40.2808 H       1  UNL1        0.0654
     32 H          14.2653   14.7224   45.5918 H       1  UNL1        0.2100
     33 H          18.6138   16.2915   41.0130 H       1  UNL1        0.0622
     34 H          17.3677   16.6826   43.2133 H       1  UNL1        0.0608
     35 H          15.7970   15.9053   43.4230 H       1  UNL1        0.0608
     36 H          17.7808   12.6348   38.9370 H       1  UNL1        0.0619
     37 H          19.2326   14.6107   39.3115 H       1  UNL1        0.0618
     38 H          16.4084   17.6660   41.2750 H       1  UNL1        0.2098
@<TRIPOS>BOND
     1     1     2    1
     2     1     3    1
     3     2     4    1
     4     2     5    1
     5     3     6    1
     6     3     7    1
     7     4     8    1
     8     5     9    1
     9     5    10    1
    10     6    11    1
    11     7    12    1
    12     8    13   ar
    13     8    14   ar
    14    10    15    1
    15    13    16   ar
    16    13    17    1
    17    14    18   ar
    18    16    19   ar
    19    17    20    1
    20     6    10    1
    21    18    19   ar
    22     2    21    1
    23     3    22    1
    24     5    23    1
    25     6    24    1
    26     7    25    1
    27     7    26    1
    28     9    27    1
    29    10    28    1
    30    11    29    1
    31    12    30    1
    32    14    31    1
    33    15    32    1
    34    16    33    1
    35    17    34    1
    36    17    35    1
    37    18    36    1
    38    19    37    1
    39    20    38    1
@<TRIPOS>SUBSTRUCTURE
     1 UNL1        1 TEMP              0 ****  ****    0 ROOT


##########                                Name:                  42
##########                DOCK_Rotatable_Bonds:                   9
##########                         Heavy_Atoms:                  20
##########                    Molecular_Weight:             286.282
##########                       Formal_Charge:         1.49012e-07
##########                     HBond_Acceptors:                   7
##########                        HBond_Donors:                   5
##########                    Continuous_Score:          -34.286587
##########               Continuous_vdw_energy:          -30.451742
##########                Continuous_es_energy:           -3.834843
##########           Internal_energy_repulsive:            5.800503

@<TRIPOS>MOLECULE
42
 38 39 1 0 0
SMALL
GASTEIGER


@<TRIPOS>ATOM
      1 O          13.1915   12.5929   41.9715 O.3     1  UNL1       -0.3313
      2 C          14.4890   12.4316   42.6033 C.3     1  UNL1        0.2308
      3 C          12.2575   13.5101   42.6079 C.3     1  UNL1        0.1140
      4 O          15.2168   13.6919   42.5389 O.3     1  UNL1       -0.4605
      5 C          14.2489   11.9234   44.0587 C.3     1  UNL1        0.1454
      6 C          11.9925   13.0263   44.0611 C.3     1  UNL1        0.1120
      7 C          10.9678   13.5040   41.7573 C.3     1  UNL1        0.0731
      8 C          16.2943   13.9444   41.6979 C.ar    1  UNL1        0.1293
      9 O          15.4492   11.7468   44.8110 O.3     1  UNL1       -0.3829
     10 C          13.3092   12.8586   44.8434 C.3     1  UNL1        0.1152
     11 O          11.1756   13.9454   44.7845 O.3     1  UNL1       -0.3865
     12 O          10.7709   12.2188   41.1666 O.3     1  UNL1       -0.3924
     13 C          17.2516   14.9000   42.0714 C.ar    1  UNL1        0.0196
     14 C          16.4520   13.2628   40.4823 C.ar    1  UNL1       -0.0195
     15 O          13.9319   14.1331   45.1027 O.3     1  UNL1       -0.3864
     16 C          18.3846   15.0893   41.2738 C.ar    1  UNL1       -0.0529
     17 C          17.0748   15.7713   43.3091 C.3     1  UNL1        0.0727
     18 C          17.5884   13.4482   39.7038 C.ar    1  UNL1       -0.0583
     19 C          18.5653   14.3506   40.1082 C.ar    1  UNL1       -0.0612
     20 O          17.3956   15.0348   44.4901 O.3     1  UNL1       -0.3903
     21 H          15.0390   11.6883   42.0070 H       1  UNL1        0.1084
     22 H          12.6958   14.5125   42.6069 H       1  UNL1        0.0647
     23 H          13.7639   10.9462   43.9800 H       1  UNL1        0.0683
     24 H          11.4792   12.0610   44.0195 H       1  UNL1        0.0647
     25 H          11.0459   14.2560   40.9673 H       1  UNL1        0.0584
     26 H          10.1068   13.7472   42.3860 H       1  UNL1        0.0584
     27 H          15.1990   11.4186   45.6950 H       1  UNL1        0.2102
     28 H          13.0773   12.3906   45.8042 H       1  UNL1        0.0648
     29 H          11.3640   13.7885   45.7273 H       1  UNL1        0.2100
     30 H          11.6615   11.8682   40.9400 H       1  UNL1        0.2095
     31 H          15.7057   12.5560   40.1306 H       1  UNL1        0.0654
     32 H          14.7594   13.9873   45.6115 H       1  UNL1        0.2100
     33 H          19.1397   15.8156   41.5658 H       1  UNL1        0.0622
     34 H          16.0529   16.1485   43.3917 H       1  UNL1        0.0608
     35 H          17.7440   16.6330   43.2482 H       1  UNL1        0.0608
     36 H          17.7152   12.8798   38.7859 H       1  UNL1        0.0619
     37 H          19.4600   14.4887   39.5067 H       1  UNL1        0.0618
     38 H          16.7035   15.2232   45.1457 H       1  UNL1        0.2098
@<TRIPOS>BOND
     1     1     2    1
     2     1     3    1
     3     2     4    1
     4     2     5    1
     5     3     6    1
     6     3     7    1
     7     4     8    1
     8     5     9    1
     9     5    10    1
    10     6    11    1
    11     7    12    1
    12     8    13   ar
    13     8    14   ar
    14    10    15    1
    15    13    16   ar
    16    13    17    1
    17    14    18   ar
    18    16    19   ar
    19    17    20    1
    20     6    10    1
    21    18    19   ar
    22     2    21    1
    23     3    22    1
    24     5    23    1
    25     6    24    1
    26     7    25    1
    27     7    26    1
    28     9    27    1
    29    10    28    1
    30    11    29    1
    31    12    30    1
    32    14    31    1
    33    15    32    1
    34    16    33    1
    35    17    34    1
    36    17    35    1
    37    18    36    1
    38    19    37    1
    39    20    38    1
@<TRIPOS>SUBSTRUCTURE
     1 UNL1        1 TEMP              0 ****  ****    0 ROOT


##########                                Name:                  43
##########                DOCK_Rotatable_Bonds:                   1
##########                         Heavy_Atoms:                  10
##########                    Molecular_Weight:             136.237
##########                       Formal_Charge:         -0.00040001
##########                     HBond_Acceptors:                   0
##########                        HBond_Donors:                   0
##########                    Continuous_Score:          -21.093254
##########               Continuous_vdw_energy:          -21.160645
##########                Continuous_es_energy:            0.067391
##########           Internal_energy_repulsive:           10.067724

@<TRIPOS>MOLECULE
43
 26 26 1 0 0
SMALL
GASTEIGER


@<TRIPOS>ATOM
      1 C          22.6701    8.7853   39.9328 C.2     1  UNL1       -0.0667
      2 C          23.5971    9.4731   39.2643 C.2     1  UNL1       -0.0623
      3 C          22.1488    9.1890   41.3109 C.3     1  UNL1       -0.0253
      4 C          22.0381    7.5153   39.3808 C.3     1  UNL1       -0.0275
      5 C          24.0390    9.1192   38.0618 C.2     1  UNL1       -0.0628
      6 C          21.6325    7.9586   42.0840 C.3     1  UNL1       -0.0589
      7 C          23.1859    9.9598   42.1606 C.3     1  UNL1       -0.0589
      8 C          22.5557    7.1021   37.9840 C.3     1  UNL1       -0.0280
      9 C          23.6002    8.0428   37.4147 C.2     1  UNL1       -0.0723
     10 C          24.1125    7.6613   36.0404 C.3     1  UNL1       -0.0435
     11 H          24.0232   10.3682   39.7081 H       1  UNL1        0.0617
     12 H          21.3057    9.8716   41.1744 H       1  UNL1        0.0340
     13 H          20.9543    7.6440   39.3253 H       1  UNL1        0.0313
     14 H          22.2189    6.6919   40.0760 H       1  UNL1        0.0313
     15 H          24.7935    9.7451   37.5904 H       1  UNL1        0.0617
     16 H          22.4389    7.2426   42.2585 H       1  UNL1        0.0235
     17 H          20.8425    7.4558   41.5213 H       1  UNL1        0.0235
     18 H          21.2201    8.2573   43.0506 H       1  UNL1        0.0235
     19 H          24.0161    9.3169   42.4603 H       1  UNL1        0.0235
     20 H          22.7187   10.3453   43.0699 H       1  UNL1        0.0235
     21 H          23.5858   10.8087   41.6010 H       1  UNL1        0.0235
     22 H          21.7073    7.0453   37.2975 H       1  UNL1        0.0313
     23 H          22.9744    6.0945   38.0477 H       1  UNL1        0.0313
     24 H          24.8586    8.3726   35.6785 H       1  UNL1        0.0274
     25 H          23.2938    7.6379   35.3181 H       1  UNL1        0.0274
     26 H          24.5753    6.6721   36.0635 H       1  UNL1        0.0274
@<TRIPOS>BOND
     1     1     2    2
     2     1     3    1
     3     1     4    1
     4     2     5    1
     5     3     6    1
     6     3     7    1
     7     4     8    1
     8     5     9    2
     9     9    10    1
    10     8     9    1
    11     2    11    1
    12     3    12    1
    13     4    13    1
    14     4    14    1
    15     5    15    1
    16     6    16    1
    17     6    17    1
    18     6    18    1
    19     7    19    1
    20     7    20    1
    21     7    21    1
    22     8    22    1
    23     8    23    1
    24    10    24    1
    25    10    25    1
    26    10    26    1
@<TRIPOS>SUBSTRUCTURE
     1 UNL1        1 TEMP              0 ****  ****    0 ROOT


##########                                Name:                  43
##########                DOCK_Rotatable_Bonds:                   1
##########                         Heavy_Atoms:                  10
##########                    Molecular_Weight:             136.237
##########                       Formal_Charge:         -0.00040001
##########                     HBond_Acceptors:                   0
##########                        HBond_Donors:                   0
##########                    Continuous_Score:          -21.475908
##########               Continuous_vdw_energy:          -21.606283
##########                Continuous_es_energy:            0.130376
##########           Internal_energy_repulsive:            8.461454

@<TRIPOS>MOLECULE
43
 26 26 1 0 0
SMALL
GASTEIGER


@<TRIPOS>ATOM
      1 C          23.0794    8.8603   39.5580 C.2     1  UNL1       -0.0667
      2 C          23.8371    9.6354   38.7805 C.2     1  UNL1       -0.0623
      3 C          22.9086    9.0801   41.0602 C.3     1  UNL1       -0.0253
      4 C          22.3062    7.6663   39.0164 C.3     1  UNL1       -0.0275
      5 C          23.9735    9.4419   37.4727 C.2     1  UNL1       -0.0628
      6 C          22.7908   10.5832   41.3848 C.3     1  UNL1       -0.0589
      7 C          21.7141    8.3057   41.6645 C.3     1  UNL1       -0.0589
      8 C          22.4688    7.4393   37.4960 C.3     1  UNL1       -0.0280
      9 C          23.3698    8.4535   36.8180 C.2     1  UNL1       -0.0723
     10 C          23.5333    8.2552   35.3245 C.3     1  UNL1       -0.0435
     11 H          24.3763   10.4698   39.2197 H       1  UNL1        0.0617
     12 H          23.7997    8.7009   41.5677 H       1  UNL1        0.0340
     13 H          21.2433    7.7923   39.2369 H       1  UNL1        0.0313
     14 H          22.6278    6.7622   39.5391 H       1  UNL1        0.0313
     15 H          24.6089   10.1290   36.9184 H       1  UNL1        0.0617
     16 H          21.9076   11.0156   40.9089 H       1  UNL1        0.0235
     17 H          23.6716   11.1226   41.0287 H       1  UNL1        0.0235
     18 H          22.7134   10.7383   42.4634 H       1  UNL1        0.0235
     19 H          20.7596    8.7023   41.3120 H       1  UNL1        0.0235
     20 H          21.7247    8.3840   42.7541 H       1  UNL1        0.0235
     21 H          21.7707    7.2468   41.4017 H       1  UNL1        0.0235
     22 H          21.4810    7.4640   37.0294 H       1  UNL1        0.0313
     23 H          22.8678    6.4353   37.3306 H       1  UNL1        0.0313
     24 H          24.1885    9.0129   34.8884 H       1  UNL1        0.0274
     25 H          22.5665    8.3177   34.8206 H       1  UNL1        0.0274
     26 H          23.9659    7.2749   35.1120 H       1  UNL1        0.0274
@<TRIPOS>BOND
     1     1     2    2
     2     1     3    1
     3     1     4    1
     4     2     5    1
     5     3     6    1
     6     3     7    1
     7     4     8    1
     8     5     9    2
     9     9    10    1
    10     8     9    1
    11     2    11    1
    12     3    12    1
    13     4    13    1
    14     4    14    1
    15     5    15    1
    16     6    16    1
    17     6    17    1
    18     6    18    1
    19     7    19    1
    20     7    20    1
    21     7    21    1
    22     8    22    1
    23     8    23    1
    24    10    24    1
    25    10    25    1
    26    10    26    1
@<TRIPOS>SUBSTRUCTURE
     1 UNL1        1 TEMP              0 ****  ****    0 ROOT


##########                                Name:                  43
##########                DOCK_Rotatable_Bonds:                   1
##########                         Heavy_Atoms:                  10
##########                    Molecular_Weight:             136.237
##########                       Formal_Charge:         -0.00040001
##########                     HBond_Acceptors:                   0
##########                        HBond_Donors:                   0
##########                    Continuous_Score:          -21.139889
##########               Continuous_vdw_energy:          -21.189642
##########                Continuous_es_energy:            0.049753
##########           Internal_energy_repulsive:            9.249693

@<TRIPOS>MOLECULE
43
 26 26 1 0 0
SMALL
GASTEIGER


@<TRIPOS>ATOM
      1 C          23.8072    8.6851   38.2066 C.2     1  UNL1       -0.0667
      2 C          24.0921    9.4816   39.2379 C.2     1  UNL1       -0.0623
      3 C          24.5333    8.7486   36.8639 C.3     1  UNL1       -0.0253
      4 C          22.7153    7.6263   38.2690 C.3     1  UNL1       -0.0275
      5 C          23.4608    9.4139   40.4054 C.2     1  UNL1       -0.0628
      6 C          25.9987    9.1902   37.0533 C.3     1  UNL1       -0.0589
      7 C          24.4707    7.4253   36.0661 C.3     1  UNL1       -0.0589
      8 C          21.9785    7.5510   39.6258 C.3     1  UNL1       -0.0280
      9 C          22.4820    8.5474   40.6525 C.2     1  UNL1       -0.0723
     10 C          21.7801    8.4821   41.9939 C.3     1  UNL1       -0.0435
     11 H          24.8750   10.2278   39.1374 H       1  UNL1        0.0617
     12 H          24.0398    9.4988   36.2402 H       1  UNL1        0.0340
     13 H          23.1479    6.6461   38.0539 H       1  UNL1        0.0313
     14 H          21.9799    7.8211   37.4845 H       1  UNL1        0.0313
     15 H          23.7654   10.1014   41.1913 H       1  UNL1        0.0617
     16 H          26.5462    8.4691   37.6645 H       1  UNL1        0.0235
     17 H          26.0452   10.1639   37.5467 H       1  UNL1        0.0235
     18 H          26.5016    9.2772   36.0874 H       1  UNL1        0.0235
     19 H          25.0510    6.6372   36.5506 H       1  UNL1        0.0235
     20 H          24.8779    7.5689   35.0625 H       1  UNL1        0.0235
     21 H          23.4370    7.0863   35.9655 H       1  UNL1        0.0235
     22 H          22.0790    6.5386   40.0245 H       1  UNL1        0.0313
     23 H          20.9113    7.7161   39.4566 H       1  UNL1        0.0313
     24 H          22.1831    9.2176   42.6941 H       1  UNL1        0.0274
     25 H          21.8983    7.4930   42.4417 H       1  UNL1        0.0274
     26 H          20.7117    8.6785   41.8787 H       1  UNL1        0.0274
@<TRIPOS>BOND
     1     1     2    2
     2     1     3    1
     3     1     4    1
     4     2     5    1
     5     3     6    1
     6     3     7    1
     7     4     8    1
     8     5     9    2
     9     9    10    1
    10     8     9    1
    11     2    11    1
    12     3    12    1
    13     4    13    1
    14     4    14    1
    15     5    15    1
    16     6    16    1
    17     6    17    1
    18     6    18    1
    19     7    19    1
    20     7    20    1
    21     7    21    1
    22     8    22    1
    23     8    23    1
    24    10    24    1
    25    10    25    1
    26    10    26    1
@<TRIPOS>SUBSTRUCTURE
     1 UNL1        1 TEMP              0 ****  ****    0 ROOT


##########                                Name:                  44
##########                DOCK_Rotatable_Bonds:                   3
##########                         Heavy_Atoms:                  11
##########                    Molecular_Weight:              152.15
##########                       Formal_Charge:        -5.96046e-08
##########                     HBond_Acceptors:                   3
##########                        HBond_Donors:                   1
##########                    Continuous_Score:          -23.559071
##########               Continuous_vdw_energy:          -21.791359
##########                Continuous_es_energy:           -1.767712
##########           Internal_energy_repulsive:            1.879523

@<TRIPOS>MOLECULE
44
 19 19 1 0 0
SMALL
GASTEIGER


@<TRIPOS>ATOM
      1 O          24.1131   13.2300   40.0583 O.2     1  UNL1       -0.2957
      2 C          23.6374   12.2542   39.5131 C.2     1  UNL1        0.1503
      3 C          23.1303   11.0474   40.2285 C.ar    1  UNL1        0.0179
      4 C          22.8279    9.8798   39.5238 C.ar    1  UNL1       -0.0061
      5 C          22.9598   11.0871   41.6131 C.ar    1  UNL1       -0.0479
      6 C          22.3558    8.7517   40.2034 C.ar    1  UNL1        0.1619
      7 C          22.4870    9.9666   42.2928 C.ar    1  UNL1       -0.0159
      8 O          22.0465    7.5622   39.5597 O.3     1  UNL1       -0.4914
      9 C          22.1863    8.8045   41.5863 C.ar    1  UNL1        0.1585
     10 C          22.4815    7.2609   38.2129 C.3     1  UNL1        0.0790
     11 O          21.7243    7.7012   42.2342 O.3     1  UNL1       -0.5033
     12 H          23.5991   12.3180   38.4148 H       1  UNL1        0.1081
     13 H          22.9655    9.8606   38.4467 H       1  UNL1        0.0662
     14 H          23.1952   11.9923   42.1676 H       1  UNL1        0.0626
     15 H          22.3543    9.9993   43.3714 H       1  UNL1        0.0655
     16 H          22.1356    6.2596   37.9434 H       1  UNL1        0.0660
     17 H          23.5739    7.2925   38.1665 H       1  UNL1        0.0660
     18 H          22.0556    7.9922   37.5199 H       1  UNL1        0.0660
     19 H          21.5196    7.0465   41.5341 H       1  UNL1        0.2923
@<TRIPOS>BOND
     1     1     2    2
     2     2     3    1
     3     3     4   ar
     4     3     5   ar
     5     4     6   ar
     6     5     7   ar
     7     6     8    1
     8     6     9   ar
     9     8    10    1
    10     9    11    1
    11     7     9   ar
    12     2    12    1
    13     4    13    1
    14     5    14    1
    15     7    15    1
    16    10    16    1
    17    10    17    1
    18    10    18    1
    19    11    19    1
@<TRIPOS>SUBSTRUCTURE
     1 UNL1        1 TEMP              0 ****  ****    0 ROOT


##########                                Name:                  44
##########                DOCK_Rotatable_Bonds:                   3
##########                         Heavy_Atoms:                  11
##########                    Molecular_Weight:              152.15
##########                       Formal_Charge:        -5.96046e-08
##########                     HBond_Acceptors:                   3
##########                        HBond_Donors:                   1
##########                    Continuous_Score:          -22.759151
##########               Continuous_vdw_energy:          -22.932217
##########                Continuous_es_energy:            0.173065
##########           Internal_energy_repulsive:            1.852736

@<TRIPOS>MOLECULE
44
 19 19 1 0 0
SMALL
GASTEIGER


@<TRIPOS>ATOM
      1 O          21.3376    7.4544   42.5076 O.2     1  UNL1       -0.2957
      2 C          21.5815    8.6336   42.3485 C.2     1  UNL1        0.1503
      3 C          22.3388    9.1933   41.1915 C.ar    1  UNL1        0.0179
      4 C          22.4191    8.4882   39.9883 C.ar    1  UNL1       -0.0061
      5 C          22.9691   10.4324   41.3139 C.ar    1  UNL1       -0.0479
      6 C          23.1289    9.0222   38.9073 C.ar    1  UNL1        0.1619
      7 C          23.6794   10.9658   40.2406 C.ar    1  UNL1       -0.0159
      8 O          23.2372    8.3730   37.6859 O.3     1  UNL1       -0.4914
      9 C          23.7574   10.2593   39.0428 C.ar    1  UNL1        0.1585
     10 C          22.6105    7.0970   37.4155 C.3     1  UNL1        0.0790
     11 O          24.4462   10.7656   37.9847 O.3     1  UNL1       -0.5033
     12 H          21.1919    9.2916   43.1403 H       1  UNL1        0.1081
     13 H          21.9238    7.5252   39.9046 H       1  UNL1        0.0662
     14 H          22.9087   10.9870   42.2472 H       1  UNL1        0.0626
     15 H          24.1703   11.9310   40.3378 H       1  UNL1        0.0655
     16 H          22.8200    6.8104   36.3816 H       1  UNL1        0.0660
     17 H          21.5294    7.1842   37.5562 H       1  UNL1        0.0660
     18 H          23.0169    6.3404   38.0927 H       1  UNL1        0.0660
     19 H          24.3499   10.1082   37.2641 H       1  UNL1        0.2923
@<TRIPOS>BOND
     1     1     2    2
     2     2     3    1
     3     3     4   ar
     4     3     5   ar
     5     4     6   ar
     6     5     7   ar
     7     6     8    1
     8     6     9   ar
     9     8    10    1
    10     9    11    1
    11     7     9   ar
    12     2    12    1
    13     4    13    1
    14     5    14    1
    15     7    15    1
    16    10    16    1
    17    10    17    1
    18    10    18    1
    19    11    19    1
@<TRIPOS>SUBSTRUCTURE
     1 UNL1        1 TEMP              0 ****  ****    0 ROOT


##########                                Name:                  44
##########                DOCK_Rotatable_Bonds:                   3
##########                         Heavy_Atoms:                  11
##########                    Molecular_Weight:              152.15
##########                       Formal_Charge:        -5.96046e-08
##########                     HBond_Acceptors:                   3
##########                        HBond_Donors:                   1
##########                    Continuous_Score:          -22.617281
##########               Continuous_vdw_energy:          -23.081915
##########                Continuous_es_energy:            0.464635
##########           Internal_energy_repulsive:            1.883199

@<TRIPOS>MOLECULE
44
 19 19 1 0 0
SMALL
GASTEIGER


@<TRIPOS>ATOM
      1 O          21.2632    7.4123   42.5215 O.2     1  UNL1       -0.2957
      2 C          21.5399    8.5878   42.3900 C.2     1  UNL1        0.1503
      3 C          22.2899    9.1568   41.2330 C.ar    1  UNL1        0.0179
      4 C          22.3778    8.4536   40.0294 C.ar    1  UNL1       -0.0061
      5 C          22.9059   10.4031   41.3559 C.ar    1  UNL1       -0.0479
      6 C          23.0808    8.9965   38.9484 C.ar    1  UNL1        0.1619
      7 C          23.6094   10.9456   40.2826 C.ar    1  UNL1       -0.0159
      8 O          23.1959    8.3494   37.7265 O.3     1  UNL1       -0.4914
      9 C          23.6949   10.2408   39.0842 C.ar    1  UNL1        0.1585
     10 C          22.5842    7.0663   37.4556 C.3     1  UNL1        0.0790
     11 O          24.3772   10.7558   38.0262 O.3     1  UNL1       -0.5033
     12 H          21.1872    9.2343   43.2081 H       1  UNL1        0.1081
     13 H          21.8937    7.4849   39.9453 H       1  UNL1        0.0662
     14 H          22.8396   10.9565   42.2895 H       1  UNL1        0.0626
     15 H          24.0890   11.9163   40.3802 H       1  UNL1        0.0655
     16 H          22.7964    6.7828   36.4214 H       1  UNL1        0.0660
     17 H          21.5021    7.1407   37.5970 H       1  UNL1        0.0660
     18 H          22.9999    6.3141   38.1321 H       1  UNL1        0.0660
     19 H          24.6661   11.6502   38.3044 H       1  UNL1        0.2923
@<TRIPOS>BOND
     1     1     2    2
     2     2     3    1
     3     3     4   ar
     4     3     5   ar
     5     4     6   ar
     6     5     7   ar
     7     6     8    1
     8     6     9   ar
     9     8    10    1
    10     9    11    1
    11     7     9   ar
    12     2    12    1
    13     4    13    1
    14     5    14    1
    15     7    15    1
    16    10    16    1
    17    10    17    1
    18    10    18    1
    19    11    19    1
@<TRIPOS>SUBSTRUCTURE
     1 UNL1        1 TEMP              0 ****  ****    0 ROOT


##########                                Name:                  49
##########                DOCK_Rotatable_Bonds:                   5
##########                         Heavy_Atoms:                  12
##########                    Molecular_Weight:             168.149
##########                       Formal_Charge:        -0.000100017
##########                     HBond_Acceptors:                   4
##########                        HBond_Donors:                   3
##########                    Continuous_Score:          -27.460657
##########               Continuous_vdw_energy:          -24.119873
##########                Continuous_es_energy:           -3.340784
##########           Internal_energy_repulsive:            2.131084

@<TRIPOS>MOLECULE
49
 20 20 1 0 0
SMALL
GASTEIGER


@<TRIPOS>ATOM
      1 O          23.9482    9.0296   35.9306 O.2     1  UNL1       -0.2507
      2 C          24.0008    8.0919   36.6980 C.2     1  UNL1        0.3091
      3 O          25.0643    7.3331   36.7923 O.3     1  UNL1       -0.4804
      4 C          22.8115    7.6569   37.5366 C.3     1  UNL1        0.0700
      5 C          22.7390    8.3145   38.9101 C.ar    1  UNL1       -0.0331
      6 C          22.1462    7.6479   39.9889 C.ar    1  UNL1       -0.0128
      7 C          23.3135    9.5734   39.1125 C.ar    1  UNL1       -0.0544
      8 C          22.1316    8.2380   41.2535 C.ar    1  UNL1        0.1585
      9 C          23.3021   10.1597   40.3767 C.ar    1  UNL1       -0.0163
     10 O          21.5576    7.6051   42.3201 O.3     1  UNL1       -0.5033
     11 C          22.7160    9.4874   41.4466 C.ar    1  UNL1        0.1582
     12 O          22.7147   10.0274   42.6918 O.3     1  UNL1       -0.5033
     13 H          24.8682    6.5730   37.3649 H       1  UNL1        0.2951
     14 H          22.8381    6.5687   37.6398 H       1  UNL1        0.0426
     15 H          21.8947    7.8961   36.9906 H       1  UNL1        0.0426
     16 H          21.7060    6.6638   39.8442 H       1  UNL1        0.0658
     17 H          23.7886   10.0996   38.2874 H       1  UNL1        0.0622
     18 H          23.7591   11.1347   40.5300 H       1  UNL1        0.0655
     19 H          21.2393    6.7246   42.0602 H       1  UNL1        0.2923
     20 H          23.0532   10.9414   42.5845 H       1  UNL1        0.2923
@<TRIPOS>BOND
     1     1     2    2
     2     2     3    1
     3     2     4    1
     4     4     5    1
     5     5     6   ar
     6     5     7   ar
     7     6     8   ar
     8     7     9   ar
     9     8    10    1
    10     8    11   ar
    11    11    12    1
    12     9    11   ar
    13     3    13    1
    14     4    14    1
    15     4    15    1
    16     6    16    1
    17     7    17    1
    18     9    18    1
    19    10    19    1
    20    12    20    1
@<TRIPOS>SUBSTRUCTURE
     1 UNL1        1 TEMP              0 ****  ****    0 ROOT


##########                                Name:                  49
##########                DOCK_Rotatable_Bonds:                   5
##########                         Heavy_Atoms:                  12
##########                    Molecular_Weight:             168.149
##########                       Formal_Charge:        -0.000100017
##########                     HBond_Acceptors:                   4
##########                        HBond_Donors:                   3
##########                    Continuous_Score:          -26.999281
##########               Continuous_vdw_energy:          -24.076523
##########                Continuous_es_energy:           -2.922758
##########           Internal_energy_repulsive:            2.144712

@<TRIPOS>MOLECULE
49
 20 20 1 0 0
SMALL
GASTEIGER


@<TRIPOS>ATOM
      1 O          25.2090    7.5876   36.9314 O.2     1  UNL1       -0.2507
      2 C          24.1928    8.2291   36.7671 C.2     1  UNL1        0.3091
      3 O          24.1653    9.3030   36.0177 O.3     1  UNL1       -0.4804
      4 C          22.8977    7.9044   37.4912 C.3     1  UNL1        0.0700
      5 C          22.7970    8.4978   38.8918 C.ar    1  UNL1       -0.0331
      6 C          22.1959    7.7761   39.9299 C.ar    1  UNL1       -0.0128
      7 C          23.3538    9.7522   39.1603 C.ar    1  UNL1       -0.0544
      8 C          22.1554    8.3076   41.2197 C.ar    1  UNL1        0.1585
      9 C          23.3167   10.2801   40.4495 C.ar    1  UNL1       -0.0163
     10 O          21.5729    7.6204   42.2473 O.3     1  UNL1       -0.5033
     11 C          22.7224    9.5531   41.4784 C.ar    1  UNL1        0.1582
     12 O          22.6962   10.0356   42.7468 O.3     1  UNL1       -0.5033
     13 H          23.2858    9.7120   36.0727 H       1  UNL1        0.2951
     14 H          22.7855    6.8175   37.5323 H       1  UNL1        0.0426
     15 H          22.0619    8.2821   36.8954 H       1  UNL1        0.0426
     16 H          21.7693    6.7949   39.7337 H       1  UNL1        0.0658
     17 H          23.8351   10.3208   38.3674 H       1  UNL1        0.0622
     18 H          23.7600   11.2519   40.6542 H       1  UNL1        0.0655
     19 H          21.2811    6.7439   41.9461 H       1  UNL1        0.2923
     20 H          23.0571   10.9457   42.6915 H       1  UNL1        0.2923
@<TRIPOS>BOND
     1     1     2    2
     2     2     3    1
     3     2     4    1
     4     4     5    1
     5     5     6   ar
     6     5     7   ar
     7     6     8   ar
     8     7     9   ar
     9     8    10    1
    10     8    11   ar
    11    11    12    1
    12     9    11   ar
    13     3    13    1
    14     4    14    1
    15     4    15    1
    16     6    16    1
    17     7    17    1
    18     9    18    1
    19    10    19    1
    20    12    20    1
@<TRIPOS>SUBSTRUCTURE
     1 UNL1        1 TEMP              0 ****  ****    0 ROOT


##########                                Name:                  49
##########                DOCK_Rotatable_Bonds:                   5
##########                         Heavy_Atoms:                  12
##########                    Molecular_Weight:             168.149
##########                       Formal_Charge:        -0.000100017
##########                     HBond_Acceptors:                   4
##########                        HBond_Donors:                   3
##########                    Continuous_Score:          -26.673607
##########               Continuous_vdw_energy:          -24.492664
##########                Continuous_es_energy:           -2.180943
##########           Internal_energy_repulsive:            1.853672

@<TRIPOS>MOLECULE
49
 20 20 1 0 0
SMALL
GASTEIGER


@<TRIPOS>ATOM
      1 O          22.2889    8.8823   36.1933 O.2     1  UNL1       -0.2507
      2 C          23.0927    8.0421   36.5385 C.2     1  UNL1        0.3091
      3 O          24.1087    7.7045   35.7838 O.3     1  UNL1       -0.4804
      4 C          22.9363    7.2419   37.8199 C.3     1  UNL1        0.0700
      5 C          22.8588    8.0911   39.0836 C.ar    1  UNL1       -0.0331
      6 C          22.1781    7.6250   40.2147 C.ar    1  UNL1       -0.0128
      7 C          23.5148    9.3250   39.1368 C.ar    1  UNL1       -0.0544
      8 C          22.1575    8.3882   41.3829 C.ar    1  UNL1        0.1585
      9 C          23.4972   10.0842   40.3053 C.ar    1  UNL1       -0.0163
     10 O          21.4983    7.9526   42.4980 O.3     1  UNL1       -0.5033
     11 C          22.8229    9.6109   41.4286 C.ar    1  UNL1        0.1582
     12 O          22.8128   10.3209   42.5853 O.3     1  UNL1       -0.5033
     13 H          24.6496    7.0442   36.2480 H       1  UNL1        0.2951
     14 H          23.7664    6.5337   37.8910 H       1  UNL1        0.0426
     15 H          22.0226    6.6453   37.7482 H       1  UNL1        0.0426
     16 H          21.6736    6.6617   40.1868 H       1  UNL1        0.0658
     17 H          24.0582    9.6961   38.2706 H       1  UNL1        0.0622
     18 H          24.0174   11.0386   40.3437 H       1  UNL1        0.0655
     19 H          21.2186    7.0287   42.3865 H       1  UNL1        0.2923
     20 H          23.3722   11.1085   42.4174 H       1  UNL1        0.2923
@<TRIPOS>BOND
     1     1     2    2
     2     2     3    1
     3     2     4    1
     4     4     5    1
     5     5     6   ar
     6     5     7   ar
     7     6     8   ar
     8     7     9   ar
     9     8    10    1
    10     8    11   ar
    11    11    12    1
    12     9    11   ar
    13     3    13    1
    14     4    14    1
    15     4    15    1
    16     6    16    1
    17     7    17    1
    18     9    18    1
    19    10    19    1
    20    12    20    1
@<TRIPOS>SUBSTRUCTURE
     1 UNL1        1 TEMP              0 ****  ****    0 ROOT


##########                                Name:                  50
##########                DOCK_Rotatable_Bonds:                   5
##########                         Heavy_Atoms:                  12
##########                    Molecular_Weight:             166.177
##########                       Formal_Charge:         5.96046e-08
##########                     HBond_Acceptors:                   3
##########                        HBond_Donors:                   2
##########                    Continuous_Score:          -27.068001
##########               Continuous_vdw_energy:          -23.196606
##########                Continuous_es_energy:           -3.871395
##########           Internal_energy_repulsive:            2.190771

@<TRIPOS>MOLECULE
50
 22 22 1 0 0
SMALL
GASTEIGER


@<TRIPOS>ATOM
      1 O          25.7854    8.7673   37.1866 O.2     1  UNL1       -0.2510
      2 C          25.4407    7.6348   36.9177 C.2     1  UNL1        0.3050
      3 O          26.2612    6.7729   36.3735 O.3     1  UNL1       -0.4806
      4 C          24.0525    7.0755   37.1854 C.3     1  UNL1        0.0487
      5 C          22.9921    8.1867   37.3738 C.3     1  UNL1       -0.0176
      6 C          22.7859    8.5798   38.8312 C.ar    1  UNL1       -0.0466
      7 C          22.0919    7.7327   39.6997 C.ar    1  UNL1       -0.0551
      8 C          23.3144    9.7763   39.3235 C.ar    1  UNL1       -0.0551
      9 C          21.9199    8.0808   41.0385 C.ar    1  UNL1       -0.0199
     10 C          23.1476   10.1223   40.6637 C.ar    1  UNL1       -0.0199
     11 C          22.4481    9.2766   41.5228 C.ar    1  UNL1        0.1169
     12 O          22.2896    9.6210   42.8322 O.3     1  UNL1       -0.5068
     13 H          25.8062    5.9186   36.2828 H       1  UNL1        0.2951
     14 H          24.0904    6.4510   38.0812 H       1  UNL1        0.0381
     15 H          23.7602    6.4312   36.3526 H       1  UNL1        0.0381
     16 H          22.0440    7.8479   36.9474 H       1  UNL1        0.0318
     17 H          23.2922    9.0718   36.8073 H       1  UNL1        0.0318
     18 H          21.6849    6.7917   39.3368 H       1  UNL1        0.0621
     19 H          23.8690   10.4429   38.6672 H       1  UNL1        0.0621
     20 H          21.3755    7.4132   41.7025 H       1  UNL1        0.0654
     21 H          23.5679   11.0526   41.0393 H       1  UNL1        0.0654
     22 H          22.4194   10.5799   42.9482 H       1  UNL1        0.2921
@<TRIPOS>BOND
     1     1     2    2
     2     2     3    1
     3     2     4    1
     4     4     5    1
     5     5     6    1
     6     6     7   ar
     7     6     8   ar
     8     7     9   ar
     9     8    10   ar
    10     9    11   ar
    11    11    12    1
    12    10    11   ar
    13     3    13    1
    14     4    14    1
    15     4    15    1
    16     5    16    1
    17     5    17    1
    18     7    18    1
    19     8    19    1
    20     9    20    1
    21    10    21    1
    22    12    22    1
@<TRIPOS>SUBSTRUCTURE
     1 UNL1        1 TEMP              0 ****  ****    0 ROOT


##########                                Name:                  50
##########                DOCK_Rotatable_Bonds:                   5
##########                         Heavy_Atoms:                  12
##########                    Molecular_Weight:             166.177
##########                       Formal_Charge:         5.96046e-08
##########                     HBond_Acceptors:                   3
##########                        HBond_Donors:                   2
##########                    Continuous_Score:          -26.063005
##########               Continuous_vdw_energy:          -23.929995
##########                Continuous_es_energy:           -2.133011
##########           Internal_energy_repulsive:            3.101841

@<TRIPOS>MOLECULE
50
 22 22 1 0 0
SMALL
GASTEIGER


@<TRIPOS>ATOM
      1 O          22.2348    9.6988   42.7748 O.2     1  UNL1       -0.2510
      2 C          21.7527    8.7290   42.2264 C.2     1  UNL1        0.3050
      3 O          21.0848    7.8202   42.8896 O.3     1  UNL1       -0.4806
      4 C          21.8434    8.4561   40.7334 C.3     1  UNL1        0.0487
      5 C          23.1008    9.0886   40.0906 C.3     1  UNL1       -0.0176
      6 C          23.1774    8.8751   38.5839 C.ar    1  UNL1       -0.0466
      7 C          23.6654    9.8861   37.7513 C.ar    1  UNL1       -0.0551
      8 C          22.7899    7.6561   38.0210 C.ar    1  UNL1       -0.0551
      9 C          23.7554    9.6854   36.3749 C.ar    1  UNL1       -0.0199
     10 C          22.8850    7.4527   36.6450 C.ar    1  UNL1       -0.0199
     11 C          23.3657    8.4676   35.8194 C.ar    1  UNL1        0.1169
     12 O          23.4568    8.2615   34.4750 O.3     1  UNL1       -0.5068
     13 H          20.7646    7.1466   42.2661 H       1  UNL1        0.2951
     14 H          20.9472    8.8498   40.2477 H       1  UNL1        0.0381
     15 H          21.8544    7.3760   40.5677 H       1  UNL1        0.0381
     16 H          23.9913    8.6691   40.5664 H       1  UNL1        0.0318
     17 H          23.1108   10.1617   40.2971 H       1  UNL1        0.0318
     18 H          23.9833   10.8365   38.1737 H       1  UNL1        0.0621
     19 H          22.4200    6.8519   38.6530 H       1  UNL1        0.0621
     20 H          24.1346   10.4818   35.7385 H       1  UNL1        0.0654
     21 H          22.5871    6.4982   36.2165 H       1  UNL1        0.0654
     22 H          23.6962    9.0900   34.0208 H       1  UNL1        0.2921
@<TRIPOS>BOND
     1     1     2    2
     2     2     3    1
     3     2     4    1
     4     4     5    1
     5     5     6    1
     6     6     7   ar
     7     6     8   ar
     8     7     9   ar
     9     8    10   ar
    10     9    11   ar
    11    11    12    1
    12    10    11   ar
    13     3    13    1
    14     4    14    1
    15     4    15    1
    16     5    16    1
    17     5    17    1
    18     7    18    1
    19     8    19    1
    20     9    20    1
    21    10    21    1
    22    12    22    1
@<TRIPOS>SUBSTRUCTURE
     1 UNL1        1 TEMP              0 ****  ****    0 ROOT


##########                                Name:                  50
##########                DOCK_Rotatable_Bonds:                   5
##########                         Heavy_Atoms:                  12
##########                    Molecular_Weight:             166.177
##########                       Formal_Charge:         5.96046e-08
##########                     HBond_Acceptors:                   3
##########                        HBond_Donors:                   2
##########                    Continuous_Score:          -25.766655
##########               Continuous_vdw_energy:          -22.366076
##########                Continuous_es_energy:           -3.400580
##########           Internal_energy_repulsive:            1.577233

@<TRIPOS>MOLECULE
50
 22 22 1 0 0
SMALL
GASTEIGER


@<TRIPOS>ATOM
      1 O          27.0023   11.2548   37.0509 O.2     1  UNL1       -0.2510
      2 C          26.3122   11.4911   38.0214 C.2     1  UNL1        0.3050
      3 O          26.1573   12.7066   38.4805 O.3     1  UNL1       -0.4806
      4 C          25.5425   10.4377   38.8020 C.3     1  UNL1        0.0487
      5 C          24.0265   10.7405   38.8703 C.3     1  UNL1       -0.0176
      6 C          23.2824    9.8612   39.8677 C.ar    1  UNL1       -0.0466
      7 C          23.0852   10.2948   41.1817 C.ar    1  UNL1       -0.0551
      8 C          22.7623    8.6258   39.4721 C.ar    1  UNL1       -0.0551
      9 C          22.3870    9.5010   42.0901 C.ar    1  UNL1       -0.0199
     10 C          22.0590    7.8338   40.3787 C.ar    1  UNL1       -0.0199
     11 C          21.8721    8.2688   41.6896 C.ar    1  UNL1        0.1169
     12 O          21.1827    7.4896   42.5703 O.3     1  UNL1       -0.5068
     13 H          26.4298   13.3396   37.7948 H       1  UNL1        0.2951
     14 H          25.9499   10.3812   39.8145 H       1  UNL1        0.0381
     15 H          25.6978    9.4622   38.3347 H       1  UNL1        0.0381
     16 H          23.5943   10.6124   37.8743 H       1  UNL1        0.0318
     17 H          23.8797   11.7884   39.1435 H       1  UNL1        0.0318
     18 H          23.4721   11.2591   41.5032 H       1  UNL1        0.0621
     19 H          22.8934    8.2763   38.4506 H       1  UNL1        0.0621
     20 H          22.2431    9.8497   43.1102 H       1  UNL1        0.0654
     21 H          21.6523    6.8767   40.0599 H       1  UNL1        0.0654
     22 H          21.1830    6.5614   42.2734 H       1  UNL1        0.2921
@<TRIPOS>BOND
     1     1     2    2
     2     2     3    1
     3     2     4    1
     4     4     5    1
     5     5     6    1
     6     6     7   ar
     7     6     8   ar
     8     7     9   ar
     9     8    10   ar
    10     9    11   ar
    11    11    12    1
    12    10    11   ar
    13     3    13    1
    14     4    14    1
    15     4    15    1
    16     5    16    1
    17     5    17    1
    18     7    18    1
    19     8    19    1
    20     9    20    1
    21    10    21    1
    22    12    22    1
@<TRIPOS>SUBSTRUCTURE
     1 UNL1        1 TEMP              0 ****  ****    0 ROOT


##########                                Name:                  51
##########                DOCK_Rotatable_Bonds:                   4
##########                         Heavy_Atoms:                  11
##########                    Molecular_Weight:              152.15
##########                       Formal_Charge:        -0.000100084
##########                     HBond_Acceptors:                   3
##########                        HBond_Donors:                   2
##########                    Continuous_Score:          -26.366127
##########               Continuous_vdw_energy:          -22.670935
##########                Continuous_es_energy:           -3.695193
##########           Internal_energy_repulsive:            2.015330

@<TRIPOS>MOLECULE
51
 19 19 1 0 0
SMALL
GASTEIGER


@<TRIPOS>ATOM
      1 O          22.1615    6.9176   37.1302 O.2     1  UNL1       -0.2507
      2 C          23.1195    7.4468   37.6523 C.2     1  UNL1        0.3091
      3 O          24.2505    6.8124   37.8344 O.3     1  UNL1       -0.4804
      4 C          23.1348    8.9167   38.0372 C.3     1  UNL1        0.0700
      5 C          22.8786    9.1746   39.5181 C.ar    1  UNL1       -0.0333
      6 C          22.2274    8.2189   40.3035 C.ar    1  UNL1       -0.0165
      7 C          23.2679   10.3862   40.0960 C.ar    1  UNL1       -0.0578
      8 C          21.9828    8.4676   41.6541 C.ar    1  UNL1        0.1171
      9 C          23.0179   10.6356   41.4444 C.ar    1  UNL1       -0.0580
     10 O          21.3571    7.5345   42.4238 O.3     1  UNL1       -0.5068
     11 C          22.3774    9.6761   42.2237 C.ar    1  UNL1       -0.0202
     12 H          24.1795    5.9271   37.4366 H       1  UNL1        0.2951
     13 H          22.3698    9.4386   37.4555 H       1  UNL1        0.0426
     14 H          24.0981    9.3401   37.7432 H       1  UNL1        0.0426
     15 H          21.9111    7.2765   39.8603 H       1  UNL1        0.0657
     16 H          23.7633   11.1470   39.4968 H       1  UNL1        0.0620
     17 H          23.3202   11.5811   41.8880 H       1  UNL1        0.0619
     18 H          21.3495    6.6748   41.9671 H       1  UNL1        0.2921
     19 H          22.1837    9.8726   43.2764 H       1  UNL1        0.0654
@<TRIPOS>BOND
     1     1     2    2
     2     2     3    1
     3     2     4    1
     4     4     5    1
     5     5     6   ar
     6     5     7   ar
     7     6     8   ar
     8     7     9   ar
     9     8    10    1
    10     8    11   ar
    11     9    11   ar
    12     3    12    1
    13     4    13    1
    14     4    14    1
    15     6    15    1
    16     7    16    1
    17     9    17    1
    18    10    18    1
    19    11    19    1
@<TRIPOS>SUBSTRUCTURE
     1 UNL1        1 TEMP              0 ****  ****    0 ROOT


##########                                Name:                  51
##########                DOCK_Rotatable_Bonds:                   4
##########                         Heavy_Atoms:                  11
##########                    Molecular_Weight:              152.15
##########                       Formal_Charge:        -0.000100084
##########                     HBond_Acceptors:                   3
##########                        HBond_Donors:                   2
##########                    Continuous_Score:          -25.027224
##########               Continuous_vdw_energy:          -21.962299
##########                Continuous_es_energy:           -3.064924
##########           Internal_energy_repulsive:            1.615340

@<TRIPOS>MOLECULE
51
 19 19 1 0 0
SMALL
GASTEIGER


@<TRIPOS>ATOM
      1 O          24.0280    8.8055   35.8722 O.2     1  UNL1       -0.2507
      2 C          23.9888    7.9151   36.6945 C.2     1  UNL1        0.3091
      3 O          25.0545    7.2322   37.0306 O.3     1  UNL1       -0.4804
      4 C          22.7354    7.5873   37.4881 C.3     1  UNL1        0.0700
      5 C          22.6632    8.2727   38.8483 C.ar    1  UNL1       -0.0333
      6 C          22.1293    7.6036   39.9538 C.ar    1  UNL1       -0.0165
      7 C          23.1044    9.5909   38.9932 C.ar    1  UNL1       -0.0578
      8 C          22.0524    8.2419   41.1916 C.ar    1  UNL1        0.1171
      9 C          23.0219   10.2293   40.2294 C.ar    1  UNL1       -0.0580
     10 O          21.5415    7.5893   42.2722 O.3     1  UNL1       -0.5068
     11 C          22.4979    9.5547   41.3287 C.ar    1  UNL1       -0.0202
     12 H          24.7863    6.5030   37.6164 H       1  UNL1        0.2951
     13 H          22.6911    6.5052   37.6408 H       1  UNL1        0.0426
     14 H          21.8650    7.8566   36.8851 H       1  UNL1        0.0426
     15 H          21.7735    6.5805   39.8488 H       1  UNL1        0.0657
     16 H          23.5098   10.1317   38.1407 H       1  UNL1        0.0620
     17 H          23.3638   11.2560   40.3356 H       1  UNL1        0.0619
     18 H          21.3421    6.6649   42.0411 H       1  UNL1        0.2921
     19 H          22.4349   10.0547   42.2932 H       1  UNL1        0.0654
@<TRIPOS>BOND
     1     1     2    2
     2     2     3    1
     3     2     4    1
     4     4     5    1
     5     5     6   ar
     6     5     7   ar
     7     6     8   ar
     8     7     9   ar
     9     8    10    1
    10     8    11   ar
    11     9    11   ar
    12     3    12    1
    13     4    13    1
    14     4    14    1
    15     6    15    1
    16     7    16    1
    17     9    17    1
    18    10    18    1
    19    11    19    1
@<TRIPOS>SUBSTRUCTURE
     1 UNL1        1 TEMP              0 ****  ****    0 ROOT


##########                                Name:                  51
##########                DOCK_Rotatable_Bonds:                   4
##########                         Heavy_Atoms:                  11
##########                    Molecular_Weight:              152.15
##########                       Formal_Charge:        -0.000100084
##########                     HBond_Acceptors:                   3
##########                        HBond_Donors:                   2
##########                    Continuous_Score:          -25.027512
##########               Continuous_vdw_energy:          -22.558552
##########                Continuous_es_energy:           -2.468961
##########           Internal_energy_repulsive:            2.104235

@<TRIPOS>MOLECULE
51
 19 19 1 0 0
SMALL
GASTEIGER


@<TRIPOS>ATOM
      1 O          23.9576    8.7686   36.0310 O.2     1  UNL1       -0.2507
      2 C          22.9843    8.1980   36.4755 C.2     1  UNL1        0.3091
      3 O          21.8356    8.1907   35.8467 O.3     1  UNL1       -0.4804
      4 C          23.0359    7.3501   37.7353 C.3     1  UNL1        0.0700
      5 C          22.7890    8.1311   39.0214 C.ar    1  UNL1       -0.0333
      6 C          22.1510    7.5264   40.1085 C.ar    1  UNL1       -0.0165
      7 C          23.1733    9.4718   39.1119 C.ar    1  UNL1       -0.0578
      8 C          21.9149    8.2513   41.2768 C.ar    1  UNL1        0.1171
      9 C          22.9316   10.1965   40.2779 C.ar    1  UNL1       -0.0580
     10 O          21.3022    7.6619   42.3407 O.3     1  UNL1       -0.5068
     11 C          22.3044    9.5861   41.3605 C.ar    1  UNL1       -0.0202
     12 H          21.1887    7.7007   36.3838 H       1  UNL1        0.2951
     13 H          24.0201    6.8773   37.7986 H       1  UNL1        0.0426
     14 H          22.3046    6.5442   37.6387 H       1  UNL1        0.0426
     15 H          21.8387    6.4857   40.0442 H       1  UNL1        0.0657
     16 H          23.6583    9.9626   38.2709 H       1  UNL1        0.0620
     17 H          23.2300   11.2400   40.3415 H       1  UNL1        0.0619
     18 H          21.0740    6.7400   42.1266 H       1  UNL1        0.2921
     19 H          22.1172   10.1534   42.2701 H       1  UNL1        0.0654
@<TRIPOS>BOND
     1     1     2    2
     2     2     3    1
     3     2     4    1
     4     4     5    1
     5     5     6   ar
     6     5     7   ar
     7     6     8   ar
     8     7     9   ar
     9     8    10    1
    10     8    11   ar
    11     9    11   ar
    12     3    12    1
    13     4    13    1
    14     4    14    1
    15     6    15    1
    16     7    16    1
    17     9    17    1
    18    10    18    1
    19    11    19    1
@<TRIPOS>SUBSTRUCTURE
     1 UNL1        1 TEMP              0 ****  ****    0 ROOT


##########                                Name:                  52
##########                DOCK_Rotatable_Bonds:                   2
##########                         Heavy_Atoms:                  14
##########                    Molecular_Weight:             192.171
##########                       Formal_Charge:        -1.49012e-08
##########                     HBond_Acceptors:                   4
##########                        HBond_Donors:                   1
##########                    Continuous_Score:          -26.652866
##########               Continuous_vdw_energy:          -26.677038
##########                Continuous_es_energy:            0.024172
##########           Internal_energy_repulsive:            4.278356

@<TRIPOS>MOLECULE
52
 22 23 1 0 0
SMALL
GASTEIGER


@<TRIPOS>ATOM
      1 O          21.1286    7.4766   42.7198 O.2     1  UNL1       -0.2452
      2 C          21.7298    8.0986   41.8692 C.ar    1  UNL1        0.3372
      3 O          21.7671    7.6766   40.5805 O.2     1  UNL1       -0.4220
      4 C          22.4549    9.3519   42.1321 C.ar    1  UNL1        0.0236
      5 C          22.4829    8.2894   39.5707 C.ar    1  UNL1        0.1428
      6 C          23.1150   10.0865   41.0894 C.ar    1  UNL1       -0.0442
      7 C          23.1035    9.5623   39.8036 C.ar    1  UNL1        0.0213
      8 C          22.3837    7.7842   38.2312 C.ar    1  UNL1        0.0267
      9 C          23.6773   10.2389   38.7302 C.ar    1  UNL1       -0.0059
     10 C          22.9608    8.4922   37.1762 C.ar    1  UNL1        0.1648
     11 C          23.6177    9.7171   37.4332 C.ar    1  UNL1        0.1592
     12 O          22.8276    7.9027   35.9229 O.3     1  UNL1       -0.4913
     13 O          24.2072   10.4527   36.4437 O.3     1  UNL1       -0.5033
     14 C          23.1933    8.4940   34.6538 C.3     1  UNL1        0.0790
     15 H          22.4297    9.6966   43.1606 H       1  UNL1        0.0689
     16 H          23.5821   11.0461   41.2959 H       1  UNL1        0.0627
     17 H          21.8731    6.8429   38.0428 H       1  UNL1        0.0692
     18 H          24.1682   11.1940   38.9025 H       1  UNL1        0.0662
     19 H          24.5249   11.3003   36.8004 H       1  UNL1        0.2923
     20 H          22.9292    7.7995   33.8526 H       1  UNL1        0.0660
     21 H          24.2709    8.6777   34.6325 H       1  UNL1        0.0660
     22 H          22.6478    9.4316   34.5163 H       1  UNL1        0.0660
@<TRIPOS>BOND
     1     1     2    2
     2     2     3   ar
     3     2     4   ar
     4     3     5   ar
     5     4     6   ar
     6     5     7   ar
     7     5     8   ar
     8     7     9   ar
     9     8    10   ar
    10     9    11   ar
    11    10    12    1
    12    11    13    1
    13    12    14    1
    14     6     7   ar
    15    10    11   ar
    16     4    15    1
    17     6    16    1
    18     8    17    1
    19     9    18    1
    20    13    19    1
    21    14    20    1
    22    14    21    1
    23    14    22    1
@<TRIPOS>SUBSTRUCTURE
     1 UNL1        1 TEMP              0 ****  ****    0 ROOT


##########                                Name:                  52
##########                DOCK_Rotatable_Bonds:                   2
##########                         Heavy_Atoms:                  14
##########                    Molecular_Weight:             192.171
##########                       Formal_Charge:        -1.49012e-08
##########                     HBond_Acceptors:                   4
##########                        HBond_Donors:                   1
##########                    Continuous_Score:          -26.174036
##########               Continuous_vdw_energy:          -26.099577
##########                Continuous_es_energy:           -0.074458
##########           Internal_energy_repulsive:            4.385754

@<TRIPOS>MOLECULE
52
 22 23 1 0 0
SMALL
GASTEIGER


@<TRIPOS>ATOM
      1 O          21.2524    7.4419   42.5780 O.2     1  UNL1       -0.2452
      2 C          21.8332    8.0536   41.7059 C.ar    1  UNL1        0.3372
      3 O          21.8050    7.6391   40.4146 O.2     1  UNL1       -0.4220
      4 C          22.6013    9.2859   41.9445 C.ar    1  UNL1        0.0236
      5 C          22.4933    8.2395   39.3787 C.ar    1  UNL1        0.1428
      6 C          23.2357   10.0099   40.8787 C.ar    1  UNL1       -0.0442
      7 C          23.1562    9.4944   39.5918 C.ar    1  UNL1        0.0213
      8 C          22.3245    7.7457   38.0419 C.ar    1  UNL1        0.0267
      9 C          23.7018   10.1628   38.4986 C.ar    1  UNL1       -0.0059
     10 C          22.8749    8.4452   36.9671 C.ar    1  UNL1        0.1648
     11 C          23.5738    9.6511   37.2027 C.ar    1  UNL1        0.1592
     12 O          22.6734    7.8675   35.7174 O.3     1  UNL1       -0.4913
     13 O          24.1402   10.3775   36.1930 O.3     1  UNL1       -0.5033
     14 C          23.1150    8.3986   34.4460 C.3     1  UNL1        0.0790
     15 H          22.6285    9.6246   42.9750 H       1  UNL1        0.0689
     16 H          23.7361   10.9556   41.0704 H       1  UNL1        0.0627
     17 H          21.7819    6.8192   37.8703 H       1  UNL1        0.0692
     18 H          24.2244   11.1037   38.6551 H       1  UNL1        0.0662
     19 H          24.5019   11.2104   36.5419 H       1  UNL1        0.2923
     20 H          22.7689    7.7365   33.6484 H       1  UNL1        0.0660
     21 H          24.2073    8.4457   34.4283 H       1  UNL1        0.0660
     22 H          22.6919    9.3960   34.2992 H       1  UNL1        0.0660
@<TRIPOS>BOND
     1     1     2    2
     2     2     3   ar
     3     2     4   ar
     4     3     5   ar
     5     4     6   ar
     6     5     7   ar
     7     5     8   ar
     8     7     9   ar
     9     8    10   ar
    10     9    11   ar
    11    10    12    1
    12    11    13    1
    13    12    14    1
    14     6     7   ar
    15    10    11   ar
    16     4    15    1
    17     6    16    1
    18     8    17    1
    19     9    18    1
    20    13    19    1
    21    14    20    1
    22    14    21    1
    23    14    22    1
@<TRIPOS>SUBSTRUCTURE
     1 UNL1        1 TEMP              0 ****  ****    0 ROOT


##########                                Name:                  52
##########                DOCK_Rotatable_Bonds:                   2
##########                         Heavy_Atoms:                  14
##########                    Molecular_Weight:             192.171
##########                       Formal_Charge:        -1.49012e-08
##########                     HBond_Acceptors:                   4
##########                        HBond_Donors:                   1
##########                    Continuous_Score:          -26.267675
##########               Continuous_vdw_energy:          -26.410114
##########                Continuous_es_energy:            0.142440
##########           Internal_energy_repulsive:            4.439167

@<TRIPOS>MOLECULE
52
 22 23 1 0 0
SMALL
GASTEIGER


@<TRIPOS>ATOM
      1 O          21.0643    7.5867   42.7765 O.2     1  UNL1       -0.2452
      2 C          21.6817    8.2086   41.9376 C.ar    1  UNL1        0.3372
      3 O          21.8110    7.7458   40.6690 O.2     1  UNL1       -0.4220
      4 C          22.3305    9.5044   42.1935 C.ar    1  UNL1        0.0236
      5 C          22.5520    8.3587   39.6778 C.ar    1  UNL1        0.1428
      6 C          23.0121   10.2352   41.1619 C.ar    1  UNL1       -0.0442
      7 C          23.0974    9.6680   39.8974 C.ar    1  UNL1        0.0213
      8 C          22.5520    7.8042   38.3542 C.ar    1  UNL1        0.0267
      9 C          23.6975   10.3355   38.8327 C.ar    1  UNL1       -0.0059
     10 C          23.1528    8.5039   37.3069 C.ar    1  UNL1        0.1648
     11 C          23.7353    9.7679   37.5543 C.ar    1  UNL1        0.1592
     12 O          23.1181    7.8667   36.0705 O.3     1  UNL1       -0.4913
     13 O          24.3435   10.4980   36.5720 O.3     1  UNL1       -0.5033
     14 C          23.7275    8.3376   34.8456 C.3     1  UNL1        0.0790
     15 H          22.2315    9.8821   43.2058 H       1  UNL1        0.0689
     16 H          23.4207   11.2231   41.3584 H       1  UNL1        0.0627
     17 H          22.0982    6.8331   38.1729 H       1  UNL1        0.0692
     18 H          24.1320   11.3190   38.9964 H       1  UNL1        0.0662
     19 H          24.6569   11.3463   36.9306 H       1  UNL1        0.2923
     20 H          23.4885    7.6371   34.0414 H       1  UNL1        0.0660
     21 H          24.8124    8.3868   34.9717 H       1  UNL1        0.0660
     22 H          23.3313    9.3257   34.5961 H       1  UNL1        0.0660
@<TRIPOS>BOND
     1     1     2    2
     2     2     3   ar
     3     2     4   ar
     4     3     5   ar
     5     4     6   ar
     6     5     7   ar
     7     5     8   ar
     8     7     9   ar
     9     8    10   ar
    10     9    11   ar
    11    10    12    1
    12    11    13    1
    13    12    14    1
    14     6     7   ar
    15    10    11   ar
    16     4    15    1
    17     6    16    1
    18     8    17    1
    19     9    18    1
    20    13    19    1
    21    14    20    1
    22    14    21    1
    23    14    22    1
@<TRIPOS>SUBSTRUCTURE
     1 UNL1        1 TEMP              0 ****  ****    0 ROOT


##########                                Name:                  54
##########                DOCK_Rotatable_Bonds:                   2
##########                         Heavy_Atoms:                   9
##########                    Molecular_Weight:             122.127
##########                       Formal_Charge:        -1.49012e-08
##########                     HBond_Acceptors:                   3
##########                        HBond_Donors:                   2
##########                    Continuous_Score:          -20.922585
##########               Continuous_vdw_energy:          -20.133350
##########                Continuous_es_energy:           -0.789234
##########           Internal_energy_repulsive:            1.280167

@<TRIPOS>MOLECULE
54
 15 15 1 0 0
SMALL
GASTEIGER


@<TRIPOS>ATOM
      1 O          21.5672    8.5580   42.5874 O.2     1  UNL1       -0.2704
      2 C          22.2317    9.1895   41.7913 C.2     1  UNL1        0.2430
      3 N          22.8145   10.3402   42.1767 N.am    1  UNL1       -0.3253
      4 C          22.4388    8.7528   40.3672 C.ar    1  UNL1        0.0545
      5 C          22.0339    7.4730   39.9712 C.ar    1  UNL1        0.0396
      6 C          23.0266    9.5805   39.4024 C.ar    1  UNL1       -0.0467
      7 N          22.1770    7.0010   38.7110 N.ar    1  UNL1       -0.2625
      8 C          23.1804    9.1044   38.1022 C.ar    1  UNL1       -0.0429
      9 C          22.7445    7.8167   37.7956 C.ar    1  UNL1        0.0276
     10 H          22.6978   10.6648   43.1245 H       1  UNL1        0.1453
     11 H          23.3547   10.8823   41.5212 H       1  UNL1        0.1453
     12 H          21.5711    6.7860   40.6780 H       1  UNL1        0.0837
     13 H          23.3659   10.5833   39.6454 H       1  UNL1        0.0626
     14 H          23.6340    9.7285   37.3363 H       1  UNL1        0.0633
     15 H          22.8456    7.4100   36.7910 H       1  UNL1        0.0829
@<TRIPOS>BOND
     1     1     2    2
     2     2     3   am
     3     2     4    1
     4     4     5   ar
     5     4     6   ar
     6     5     7   ar
     7     6     8   ar
     8     7     9   ar
     9     8     9   ar
    10     3    10    1
    11     3    11    1
    12     5    12    1
    13     6    13    1
    14     8    14    1
    15     9    15    1
@<TRIPOS>SUBSTRUCTURE
     1 UNL1        1 TEMP              0 ****  ****    0 ROOT


##########                                Name:                  54
##########                DOCK_Rotatable_Bonds:                   2
##########                         Heavy_Atoms:                   9
##########                    Molecular_Weight:             122.127
##########                       Formal_Charge:        -1.49012e-08
##########                     HBond_Acceptors:                   3
##########                        HBond_Donors:                   2
##########                    Continuous_Score:          -20.918831
##########               Continuous_vdw_energy:          -20.095045
##########                Continuous_es_energy:           -0.823785
##########           Internal_energy_repulsive:            1.360075

@<TRIPOS>MOLECULE
54
 15 15 1 0 0
SMALL
GASTEIGER


@<TRIPOS>ATOM
      1 O          21.9997    6.3508   39.0355 O.2     1  UNL1       -0.2704
      2 C          22.4478    7.4610   38.8331 C.2     1  UNL1        0.2430
      3 N          22.8564    7.7976   37.5954 N.am    1  UNL1       -0.3253
      4 C          22.5809    8.5005   39.9118 C.ar    1  UNL1        0.0545
      5 C          22.1516    8.2069   41.2111 C.ar    1  UNL1        0.0396
      6 C          23.1241    9.7692   39.6736 C.ar    1  UNL1       -0.0467
      7 N          22.2390    9.0797   42.2415 N.ar    1  UNL1       -0.2625
      8 C          23.2174   10.6765   40.7266 C.ar    1  UNL1       -0.0429
      9 C          22.7682   10.2971   41.9901 C.ar    1  UNL1        0.0276
     10 H          22.7824    7.1262   36.8464 H       1  UNL1        0.1453
     11 H          23.2457    8.7099   37.4179 H       1  UNL1        0.1453
     12 H          21.7214    7.2368   41.4550 H       1  UNL1        0.0837
     13 H          23.4725   10.0616   38.6871 H       1  UNL1        0.0626
     14 H          23.6353   11.6672   40.5660 H       1  UNL1        0.0633
     15 H          22.8260   10.9771   42.8382 H       1  UNL1        0.0829
@<TRIPOS>BOND
     1     1     2    2
     2     2     3   am
     3     2     4    1
     4     4     5   ar
     5     4     6   ar
     6     5     7   ar
     7     6     8   ar
     8     7     9   ar
     9     8     9   ar
    10     3    10    1
    11     3    11    1
    12     5    12    1
    13     6    13    1
    14     8    14    1
    15     9    15    1
@<TRIPOS>SUBSTRUCTURE
     1 UNL1        1 TEMP              0 ****  ****    0 ROOT


##########                                Name:                  54
##########                DOCK_Rotatable_Bonds:                   2
##########                         Heavy_Atoms:                   9
##########                    Molecular_Weight:             122.127
##########                       Formal_Charge:        -1.49012e-08
##########                     HBond_Acceptors:                   3
##########                        HBond_Donors:                   2
##########                    Continuous_Score:          -20.902565
##########               Continuous_vdw_energy:          -20.089792
##########                Continuous_es_energy:           -0.812772
##########           Internal_energy_repulsive:            1.342819

@<TRIPOS>MOLECULE
54
 15 15 1 0 0
SMALL
GASTEIGER


@<TRIPOS>ATOM
      1 O          22.1125    6.5945   38.5556 O.2     1  UNL1       -0.2704
      2 C          22.4471    7.7614   38.5782 C.2     1  UNL1        0.2430
      3 N          22.8121    8.3707   37.4347 N.am    1  UNL1       -0.3253
      4 C          22.4841    8.5794   39.8397 C.ar    1  UNL1        0.0545
      5 C          22.0232    8.0224   41.0380 C.ar    1  UNL1        0.0396
      6 C          22.9669    9.8936   39.8725 C.ar    1  UNL1       -0.0467
      7 N          22.0252    8.6841   42.2186 N.ar    1  UNL1       -0.2625
      8 C          22.9721   10.5850   41.0819 C.ar    1  UNL1       -0.0429
      9 C          22.4973    9.9500   42.2280 C.ar    1  UNL1        0.0276
     10 H          22.8000    7.8537   36.5688 H       1  UNL1        0.1453
     11 H          23.1081    9.3340   37.4425 H       1  UNL1        0.1453
     12 H          21.6369    7.0049   41.0730 H       1  UNL1        0.0837
     13 H          23.3354   10.3856   38.9769 H       1  UNL1        0.0626
     14 H          23.3418   11.6062   41.1321 H       1  UNL1        0.0633
     15 H          22.4869   10.4563   43.1916 H       1  UNL1        0.0829
@<TRIPOS>BOND
     1     1     2    2
     2     2     3   am
     3     2     4    1
     4     4     5   ar
     5     4     6   ar
     6     5     7   ar
     7     6     8   ar
     8     7     9   ar
     9     8     9   ar
    10     3    10    1
    11     3    11    1
    12     5    12    1
    13     6    13    1
    14     8    14    1
    15     9    15    1
@<TRIPOS>SUBSTRUCTURE
     1 UNL1        1 TEMP              0 ****  ****    0 ROOT


##########                                Name:                  55
##########                DOCK_Rotatable_Bonds:                   2
##########                         Heavy_Atoms:                   9
##########                    Molecular_Weight:             123.111
##########                       Formal_Charge:         9.99421e-05
##########                     HBond_Acceptors:                   3
##########                        HBond_Donors:                   1
##########                    Continuous_Score:          -21.664291
##########               Continuous_vdw_energy:          -20.314144
##########                Continuous_es_energy:           -1.350147
##########           Internal_energy_repulsive:            1.172953

@<TRIPOS>MOLECULE
55
 14 14 1 0 0
SMALL
GASTEIGER


@<TRIPOS>ATOM
      1 O          22.2988    9.5939   42.7683 O.2     1  UNL1       -0.2451
      2 C          21.9988    8.6929   42.0115 C.2     1  UNL1        0.3383
      3 O          21.2929    7.6735   42.4283 O.3     1  UNL1       -0.4771
      4 C          22.4092    8.6630   40.5641 C.ar    1  UNL1        0.0769
      5 C          22.1889    7.5473   39.7439 C.ar    1  UNL1        0.0415
      6 C          23.0334    9.7768   39.9954 C.ar    1  UNL1       -0.0449
      7 N          22.5514    7.4985   38.4414 N.ar    1  UNL1       -0.2624
      8 C          23.4129    9.7374   38.6558 C.ar    1  UNL1       -0.0428
      9 C          23.1566    8.5859   37.9144 C.ar    1  UNL1        0.0276
     10 H          21.4855    6.9202   41.8475 H       1  UNL1        0.2954
     11 H          21.7034    6.6481   40.1151 H       1  UNL1        0.0838
     12 H          23.2271   10.6683   40.5871 H       1  UNL1        0.0627
     13 H          23.9024   10.5922   38.1953 H       1  UNL1        0.0633
     14 H          23.4377    8.5152   36.8651 H       1  UNL1        0.0829
@<TRIPOS>BOND
     1     1     2    2
     2     2     3    1
     3     2     4    1
     4     4     5   ar
     5     4     6   ar
     6     5     7   ar
     7     6     8   ar
     8     7     9   ar
     9     8     9   ar
    10     3    10    1
    11     5    11    1
    12     6    12    1
    13     8    13    1
    14     9    14    1
@<TRIPOS>SUBSTRUCTURE
     1 UNL1        1 TEMP              0 ****  ****    0 ROOT


##########                                Name:                  55
##########                DOCK_Rotatable_Bonds:                   2
##########                         Heavy_Atoms:                   9
##########                    Molecular_Weight:             123.111
##########                       Formal_Charge:         9.99421e-05
##########                     HBond_Acceptors:                   3
##########                        HBond_Donors:                   1
##########                    Continuous_Score:          -21.385323
##########               Continuous_vdw_energy:          -20.391930
##########                Continuous_es_energy:           -0.993393
##########           Internal_energy_repulsive:            1.018435

@<TRIPOS>MOLECULE
55
 14 14 1 0 0
SMALL
GASTEIGER


@<TRIPOS>ATOM
      1 O          22.7277   10.0506   42.6703 O.2     1  UNL1       -0.2451
      2 C          22.1808    9.1368   42.0868 C.2     1  UNL1        0.3383
      3 O          21.3201    8.3674   42.7019 O.3     1  UNL1       -0.4771
      4 C          22.4439    8.8085   40.6419 C.ar    1  UNL1        0.0769
      5 C          22.1015    7.5708   40.0787 C.ar    1  UNL1        0.0415
      6 C          23.0494    9.7568   39.8127 C.ar    1  UNL1       -0.0449
      7 N          22.3307    7.2543   38.7834 N.ar    1  UNL1       -0.2624
      8 C          23.2920    9.4414   38.4779 C.ar    1  UNL1       -0.0428
      9 C          22.9205    8.1858   38.0017 C.ar    1  UNL1        0.0276
     10 H          21.1220    7.6166   42.1195 H       1  UNL1        0.2954
     11 H          21.6223    6.7874   40.6606 H       1  UNL1        0.0838
     12 H          23.3341   10.7324   40.1991 H       1  UNL1        0.0627
     13 H          23.7648   10.1640   37.8170 H       1  UNL1        0.0633
     14 H          23.0931    7.9007   36.9654 H       1  UNL1        0.0829
@<TRIPOS>BOND
     1     1     2    2
     2     2     3    1
     3     2     4    1
     4     4     5   ar
     5     4     6   ar
     6     5     7   ar
     7     6     8   ar
     8     7     9   ar
     9     8     9   ar
    10     3    10    1
    11     5    11    1
    12     6    12    1
    13     8    13    1
    14     9    14    1
@<TRIPOS>SUBSTRUCTURE
     1 UNL1        1 TEMP              0 ****  ****    0 ROOT


##########                                Name:                  55
##########                DOCK_Rotatable_Bonds:                   2
##########                         Heavy_Atoms:                   9
##########                    Molecular_Weight:             123.111
##########                       Formal_Charge:         9.99421e-05
##########                     HBond_Acceptors:                   3
##########                        HBond_Donors:                   1
##########                    Continuous_Score:          -20.967739
##########               Continuous_vdw_energy:          -19.719585
##########                Continuous_es_energy:           -1.248154
##########           Internal_energy_repulsive:            0.937982

@<TRIPOS>MOLECULE
55
 14 14 1 0 0
SMALL
GASTEIGER


@<TRIPOS>ATOM
      1 O          22.2592    7.8043   37.6005 O.2     1  UNL1       -0.2451
      2 C          22.2800    7.5174   38.7802 C.2     1  UNL1        0.3383
      3 O          22.1111    6.2812   39.1733 O.3     1  UNL1       -0.4771
      4 C          22.4872    8.5336   39.8706 C.ar    1  UNL1        0.0769
      5 C          22.0874    8.3059   41.1952 C.ar    1  UNL1        0.0415
      6 C          23.0993    9.7550   39.5753 C.ar    1  UNL1       -0.0449
      7 N          22.2623    9.2060   42.1899 N.ar    1  UNL1       -0.2624
      8 C          23.2828   10.6902   40.5910 C.ar    1  UNL1       -0.0428
      9 C          22.8530   10.3814   41.8798 C.ar    1  UNL1        0.0276
     10 H          22.1820    6.2639   40.1410 H       1  UNL1        0.2954
     11 H          21.6112    7.3773   41.5001 H       1  UNL1        0.0838
     12 H          23.4290    9.9817   38.5643 H       1  UNL1        0.0627
     13 H          23.7540   11.6476   40.3814 H       1  UNL1        0.0633
     14 H          22.9778   11.0851   42.7010 H       1  UNL1        0.0829
@<TRIPOS>BOND
     1     1     2    2
     2     2     3    1
     3     2     4    1
     4     4     5   ar
     5     4     6   ar
     6     5     7   ar
     7     6     8   ar
     8     7     9   ar
     9     8     9   ar
    10     3    10    1
    11     5    11    1
    12     6    12    1
    13     8    13    1
    14     9    14    1
@<TRIPOS>SUBSTRUCTURE
     1 UNL1        1 TEMP              0 ****  ****    0 ROOT


##########                                Name:                  56
##########                DOCK_Rotatable_Bonds:                  16
##########                         Heavy_Atoms:                  43
##########                    Molecular_Weight:             610.525
##########                       Formal_Charge:        -0.000199944
##########                     HBond_Acceptors:                  16
##########                        HBond_Donors:                  10
##########                    Continuous_Score:          -48.478798
##########               Continuous_vdw_energy:          -44.875648
##########                Continuous_es_energy:           -3.603148
##########           Internal_energy_repulsive:           19.645876

@<TRIPOS>MOLECULE
56
 73 77 1 0 0
SMALL
GASTEIGER


@<TRIPOS>ATOM
      1 O           6.0411   12.8682   44.8594 O.2     1  UNL1       -0.2830
      2 C           5.5624   13.9431   45.1687 C.ar    1  UNL1        0.2382
      3 C           5.9113   15.2722   44.5582 C.ar    1  UNL1        0.2138
      4 C           4.4896   14.0536   46.1677 C.ar    1  UNL1        0.1092
      5 O           6.6693   15.3456   43.3912 O.3     1  UNL1       -0.4532
      6 C           5.4842   16.2754   44.9033 C.ar    1  UNL1        0.1810
      7 C           4.0875   15.3336   46.4443 C.ar    1  UNL1        0.1465
      8 C           3.7802   12.9639   46.8019 C.ar    1  UNL1        0.1348
      9 C           7.1799   14.1827   42.6712 C.3     1  UNL1        0.2311
     10 O           4.7153   16.3388   45.7287 O.2     1  UNL1       -0.4507
     11 C           5.8224   17.7592   44.7188 C.ar    1  UNL1        0.0247
     12 C           3.0828   15.5807   47.4559 C.ar    1  UNL1        0.0231
     13 O           4.0038   11.6866   46.3911 O.3     1  UNL1       -0.5058
     14 C           2.7791   13.2053   47.7359 C.ar    1  UNL1        0.0223
     15 O           8.3328   13.6071   43.3444 O.3     1  UNL1       -0.3313
     16 C           7.5748   14.5725   41.2387 C.3     1  UNL1        0.1454
     17 C           4.8945   18.7985   44.9949 C.ar    1  UNL1       -0.0057
     18 C           7.1010   18.1506   44.2572 C.ar    1  UNL1       -0.0473
     19 C           2.4423   14.5082   48.0841 C.ar    1  UNL1        0.1239
     20 C           9.5118   14.4530   43.4641 C.3     1  UNL1        0.1144
     21 O           6.4630   15.1991   40.5902 O.3     1  UNL1       -0.3829
     22 C           8.7951   15.5114   41.2456 C.3     1  UNL1        0.1152
     23 C           5.2534   20.1383   44.8560 C.ar    1  UNL1        0.1589
     24 C           7.4384   19.4971   44.1018 C.ar    1  UNL1       -0.0159
     25 O           1.4722   14.6926   49.0283 O.3     1  UNL1       -0.5065
     26 C           9.9799   14.9141   42.0542 C.3     1  UNL1        0.1120
     27 C          10.5986   13.6527   44.2262 C.3     1  UNL1        0.0796
     28 O           9.1739   15.7339   39.8874 O.3     1  UNL1       -0.3864
     29 O           4.3872   21.1380   45.1830 O.3     1  UNL1       -0.5033
     30 C           6.5185   20.4901   44.4177 C.ar    1  UNL1        0.1583
     31 O          10.6072   13.8351   41.3405 O.3     1  UNL1       -0.3865
     32 O          11.9241   14.1574   43.9121 O.3     1  UNL1       -0.3461
     33 O           6.8288   21.8158   44.3595 O.3     1  UNL1       -0.5033
     34 C          12.9965   13.5105   44.6552 C.3     1  UNL1        0.1879
     35 O          13.9858   14.4734   45.1113 O.3     1  UNL1       -0.3431
     36 C          13.7050   12.4553   43.7713 C.3     1  UNL1        0.1341
     37 C          14.6997   15.1993   44.0731 C.3     1  UNL1        0.0873
     38 O          12.7475   11.5100   43.2842 O.3     1  UNL1       -0.3841
     39 C          14.4506   13.1445   42.6020 C.3     1  UNL1        0.1140
     40 C          15.4417   14.2015   43.1449 C.3     1  UNL1        0.1095
     41 C          15.6629   16.1970   44.7501 C.3     1  UNL1       -0.0361
     42 O          15.1762   12.1830   41.8278 O.3     1  UNL1       -0.3864
     43 O          16.5197   13.5548   43.8419 O.3     1  UNL1       -0.3866
     44 H           6.3962   13.4173   42.5900 H       1  UNL1        0.1084
     45 H           2.8370   16.6056   47.7230 H       1  UNL1        0.0691
     46 H           4.7160   11.7223   45.7198 H       1  UNL1        0.2922
     47 H           2.2467   12.3697   48.1859 H       1  UNL1        0.0691
     48 H           7.8283   13.6592   40.6924 H       1  UNL1        0.0683
     49 H           3.8853   18.5735   45.3325 H       1  UNL1        0.0662
     50 H           7.8639   17.4121   44.0317 H       1  UNL1        0.0626
     51 H           9.2402   15.3306   44.0572 H       1  UNL1        0.0647
     52 H           5.6742   14.6458   40.7327 H       1  UNL1        0.2102
     53 H           8.5103   16.4646   41.7008 H       1  UNL1        0.0648
     54 H           8.4319   19.7708   43.7557 H       1  UNL1        0.0655
     55 H           1.4300   15.6109   49.3364 H       1  UNL1        0.2921
     56 H          10.7298   15.6983   42.1932 H       1  UNL1        0.0647
     57 H          10.5439   12.5966   43.9458 H       1  UNL1        0.0587
     58 H          10.4332   13.7369   45.3037 H       1  UNL1        0.0587
     59 H           8.4156   16.1265   39.4390 H       1  UNL1        0.2100
     60 H           3.5265   20.7480   45.3723 H       1  UNL1        0.2923
     61 H          11.4112   13.5526   41.8077 H       1  UNL1        0.2100
     62 H           6.0129   22.2982   44.6431 H       1  UNL1        0.2923
     63 H          12.5585   13.0233   45.5408 H       1  UNL1        0.0937
     64 H          14.4318   11.9180   44.3868 H       1  UNL1        0.0671
     65 H          13.9718   15.7623   43.4818 H       1  UNL1        0.0621
     66 H          12.0744   11.3712   43.9725 H       1  UNL1        0.2101
     67 H          13.7191   13.6389   41.9566 H       1  UNL1        0.0648
     68 H          15.8607   14.7514   42.2970 H       1  UNL1        0.0646
     69 H          16.3634   15.6832   45.4124 H       1  UNL1        0.0255
     70 H          15.1017   16.9190   45.3473 H       1  UNL1        0.0255
     71 H          16.2366   16.7451   43.9994 H       1  UNL1        0.0255
     72 H          15.8110   11.7462   42.4283 H       1  UNL1        0.2100
     73 H          16.8895   12.8550   43.2719 H       1  UNL1        0.2100
@<TRIPOS>BOND
     1     1     2    2
     2     2     3   ar
     3     2     4   ar
     4     3     5    1
     5     3     6   ar
     6     4     7   ar
     7     4     8   ar
     8     5     9    1
     9     6    10   ar
    10     6    11    1
    11     7    12   ar
    12     8    13    1
    13     8    14   ar
    14     9    15    1
    15     9    16    1
    16    11    17   ar
    17    11    18   ar
    18    12    19   ar
    19    15    20    1
    20    16    21    1
    21    16    22    1
    22    17    23   ar
    23    18    24   ar
    24    19    25    1
    25    20    26    1
    26    20    27    1
    27    22    28    1
    28    23    29    1
    29    23    30   ar
    30    26    31    1
    31    27    32    1
    32    30    33    1
    33    32    34    1
    34    34    35    1
    35    34    36    1
    36    35    37    1
    37    36    38    1
    38    36    39    1
    39    37    40    1
    40    37    41    1
    41    39    42    1
    42    40    43    1
    43     7    10   ar
    44    14    19   ar
    45    22    26    1
    46    24    30   ar
    47    39    40    1
    48     9    44    1
    49    12    45    1
    50    13    46    1
    51    14    47    1
    52    16    48    1
    53    17    49    1
    54    18    50    1
    55    20    51    1
    56    21    52    1
    57    22    53    1
    58    24    54    1
    59    25    55    1
    60    26    56    1
    61    27    57    1
    62    27    58    1
    63    28    59    1
    64    29    60    1
    65    31    61    1
    66    33    62    1
    67    34    63    1
    68    36    64    1
    69    37    65    1
    70    38    66    1
    71    39    67    1
    72    40    68    1
    73    41    69    1
    74    41    70    1
    75    41    71    1
    76    42    72    1
    77    43    73    1
@<TRIPOS>SUBSTRUCTURE
     1 UNL1        1 TEMP              0 ****  ****    0 ROOT


##########                                Name:                  56
##########                DOCK_Rotatable_Bonds:                  16
##########                         Heavy_Atoms:                  43
##########                    Molecular_Weight:             610.525
##########                       Formal_Charge:        -0.000199944
##########                     HBond_Acceptors:                  16
##########                        HBond_Donors:                  10
##########                    Continuous_Score:          -49.034008
##########               Continuous_vdw_energy:          -43.844364
##########                Continuous_es_energy:           -5.189645
##########           Internal_energy_repulsive:           11.785105

@<TRIPOS>MOLECULE
56
 73 77 1 0 0
SMALL
GASTEIGER


@<TRIPOS>ATOM
      1 O           9.8066   12.1910   41.3901 O.2     1  UNL1       -0.2830
      2 C          10.4449   13.1500   41.7813 C.ar    1  UNL1        0.2382
      3 C          10.1289   14.5932   41.5014 C.ar    1  UNL1        0.2138
      4 C          11.6055   12.9966   42.6705 C.ar    1  UNL1        0.1092
      5 O           8.9054   14.9618   40.9451 O.3     1  UNL1       -0.4532
      6 C          10.7751   15.4748   41.8376 C.ar    1  UNL1        0.1810
      7 C          12.2499   14.1635   42.9858 C.ar    1  UNL1        0.1465
      8 C          12.0632   11.7746   43.2952 C.ar    1  UNL1        0.1348
      9 C           7.8149   15.5753   41.6975 C.3     1  UNL1        0.2311
     10 O          11.7075   15.3225   42.4573 O.2     1  UNL1       -0.4507
     11 C          10.9054   16.9630   41.4937 C.ar    1  UNL1        0.0247
     12 C          13.4445   14.1403   43.8021 C.ar    1  UNL1        0.0231
     13 O          11.3209   10.6407   43.1779 O.3     1  UNL1       -0.5058
     14 C          13.1816   11.7649   44.1209 C.ar    1  UNL1        0.0223
     15 O           6.9425   14.5694   42.2811 O.3     1  UNL1       -0.3313
     16 C           6.9871   16.4932   40.7852 C.3     1  UNL1        0.1454
     17 C          10.7929   17.9893   42.4689 C.ar    1  UNL1       -0.0057
     18 C          11.1488   17.3717   40.1615 C.ar    1  UNL1       -0.0473
     19 C          13.8892   12.9375   44.3594 C.ar    1  UNL1        0.1239
     20 C           6.2396   13.6939   41.3543 C.3     1  UNL1        0.1144
     21 O           7.8501   17.4465   40.1562 O.3     1  UNL1       -0.3829
     22 C           6.2288   15.6708   39.7271 C.3     1  UNL1        0.1152
     23 C          10.9603   19.3298   42.1245 C.ar    1  UNL1        0.1589
     24 C          11.2920   18.7206   39.8283 C.ar    1  UNL1       -0.0159
     25 O          14.9982   12.8704   45.1544 O.3     1  UNL1       -0.5065
     26 C           5.3801   14.5405   40.3723 C.3     1  UNL1        0.1120
     27 C           5.3940   12.6969   42.1870 C.3     1  UNL1        0.0796
     28 O           5.3959   16.5720   38.9979 O.3     1  UNL1       -0.3864
     29 O          10.9182   20.3110   43.0690 O.3     1  UNL1       -0.5033
     30 C          11.2141   19.6971   40.8143 C.ar    1  UNL1        0.1583
     31 O           4.2177   15.0719   41.0307 O.3     1  UNL1       -0.3865
     32 O           4.9369   13.3147   43.4200 O.3     1  UNL1       -0.3461
     33 O          11.4275   21.0171   40.5509 O.3     1  UNL1       -0.5033
     34 C           3.6435   12.8305   43.8817 C.3     1  UNL1        0.1879
     35 O           2.6894   13.9176   44.0309 O.3     1  UNL1       -0.3431
     36 C           3.7918   12.1127   45.2454 C.3     1  UNL1        0.1341
     37 C           3.0264   14.9358   45.0126 C.3     1  UNL1        0.0873
     38 O           4.7488   11.0548   45.1341 O.3     1  UNL1       -0.3841
     39 C           4.2044   13.1227   46.3444 C.3     1  UNL1        0.1140
     40 C           3.1880   14.2874   46.4129 C.3     1  UNL1        0.1095
     41 C           1.9256   16.0171   44.9911 C.3     1  UNL1       -0.0361
     42 O           4.2631   12.4825   47.6238 O.3     1  UNL1       -0.3864
     43 O           1.9253   13.8118   46.9086 O.3     1  UNL1       -0.3866
     44 H           8.2205   16.2046   42.5011 H       1  UNL1        0.1084
     45 H          13.9913   15.0646   43.9718 H       1  UNL1        0.0691
     46 H          11.6381   10.0185   43.8644 H       1  UNL1        0.2922
     47 H          13.4960   10.8370   44.5945 H       1  UNL1        0.0691
     48 H           6.2648   17.0321   41.4054 H       1  UNL1        0.0683
     49 H          10.5848   17.7527   43.5099 H       1  UNL1        0.0662
     50 H          11.2528   16.6432   39.3635 H       1  UNL1        0.0626
     51 H           6.9865   13.1327   40.7858 H       1  UNL1        0.0647
     52 H           7.6897   18.3179   40.5607 H       1  UNL1        0.2102
     53 H           6.9512   15.2148   39.0437 H       1  UNL1        0.0648
     54 H          11.4895   19.0069   38.7982 H       1  UNL1        0.0655
     55 H          15.5413   12.0908   44.9613 H       1  UNL1        0.2921
     56 H           5.0334   13.8751   39.5760 H       1  UNL1        0.0647
     57 H           5.9960   11.8167   42.4313 H       1  UNL1        0.0587
     58 H           4.5241   12.3753   41.6078 H       1  UNL1        0.0587
     59 H           5.2456   16.1831   38.1282 H       1  UNL1        0.2100
     60 H          10.1687   20.1440   43.6514 H       1  UNL1        0.2923
     61 H           3.7822   14.3738   41.5479 H       1  UNL1        0.2100
     62 H          11.8864   21.0483   39.6748 H       1  UNL1        0.2923
     63 H           3.2487   12.1284   43.1303 H       1  UNL1        0.0937
     64 H           2.8270   11.6730   45.5131 H       1  UNL1        0.0671
     65 H           3.9748   15.3965   44.7214 H       1  UNL1        0.0621
     66 H           5.6051   11.4399   44.8802 H       1  UNL1        0.2101
     67 H           5.1927   13.5247   46.1042 H       1  UNL1        0.0648
     68 H           3.5700   15.0400   47.1094 H       1  UNL1        0.0646
     69 H           0.9441   15.5868   45.2033 H       1  UNL1        0.0255
     70 H           1.8803   16.4917   44.0084 H       1  UNL1        0.0255
     71 H           2.1323   16.7892   45.7356 H       1  UNL1        0.0255
     72 H           4.5837   13.1457   48.2656 H       1  UNL1        0.2100
     73 H           1.5606   13.1658   46.2753 H       1  UNL1        0.2100
@<TRIPOS>BOND
     1     1     2    2
     2     2     3   ar
     3     2     4   ar
     4     3     5    1
     5     3     6   ar
     6     4     7   ar
     7     4     8   ar
     8     5     9    1
     9     6    10   ar
    10     6    11    1
    11     7    12   ar
    12     8    13    1
    13     8    14   ar
    14     9    15    1
    15     9    16    1
    16    11    17   ar
    17    11    18   ar
    18    12    19   ar
    19    15    20    1
    20    16    21    1
    21    16    22    1
    22    17    23   ar
    23    18    24   ar
    24    19    25    1
    25    20    26    1
    26    20    27    1
    27    22    28    1
    28    23    29    1
    29    23    30   ar
    30    26    31    1
    31    27    32    1
    32    30    33    1
    33    32    34    1
    34    34    35    1
    35    34    36    1
    36    35    37    1
    37    36    38    1
    38    36    39    1
    39    37    40    1
    40    37    41    1
    41    39    42    1
    42    40    43    1
    43     7    10   ar
    44    14    19   ar
    45    22    26    1
    46    24    30   ar
    47    39    40    1
    48     9    44    1
    49    12    45    1
    50    13    46    1
    51    14    47    1
    52    16    48    1
    53    17    49    1
    54    18    50    1
    55    20    51    1
    56    21    52    1
    57    22    53    1
    58    24    54    1
    59    25    55    1
    60    26    56    1
    61    27    57    1
    62    27    58    1
    63    28    59    1
    64    29    60    1
    65    31    61    1
    66    33    62    1
    67    34    63    1
    68    36    64    1
    69    37    65    1
    70    38    66    1
    71    39    67    1
    72    40    68    1
    73    41    69    1
    74    41    70    1
    75    41    71    1
    76    42    72    1
    77    43    73    1
@<TRIPOS>SUBSTRUCTURE
     1 UNL1        1 TEMP              0 ****  ****    0 ROOT


##########                                Name:                  56
##########                DOCK_Rotatable_Bonds:                  16
##########                         Heavy_Atoms:                  43
##########                    Molecular_Weight:             610.525
##########                       Formal_Charge:        -0.000199944
##########                     HBond_Acceptors:                  16
##########                        HBond_Donors:                  10
##########                    Continuous_Score:          -48.717072
##########               Continuous_vdw_energy:          -43.665562
##########                Continuous_es_energy:           -5.051508
##########           Internal_energy_repulsive:           11.642659

@<TRIPOS>MOLECULE
56
 73 77 1 0 0
SMALL
GASTEIGER


@<TRIPOS>ATOM
      1 O           9.7763   12.1973   41.3508 O.2     1  UNL1       -0.2830
      2 C          10.4372   13.1477   41.7252 C.ar    1  UNL1        0.2382
      3 C          10.1424   14.5940   41.4390 C.ar    1  UNL1        0.2138
      4 C          11.6079   12.9802   42.5984 C.ar    1  UNL1        0.1092
      5 O           8.9175   14.9803   40.8982 O.3     1  UNL1       -0.4532
      6 C          10.8091   15.4665   41.7591 C.ar    1  UNL1        0.1810
      7 C          12.2775   14.1378   42.8952 C.ar    1  UNL1        0.1465
      8 C          12.0533   11.7548   43.2255 C.ar    1  UNL1        0.1348
      9 C           7.8358   15.5861   41.6692 C.3     1  UNL1        0.2311
     10 O          11.7477   15.3023   42.3660 O.2     1  UNL1       -0.4507
     11 C          10.9605   16.9496   41.4019 C.ar    1  UNL1        0.0247
     12 C          13.4835   14.0994   43.6940 C.ar    1  UNL1        0.0231
     13 O          11.2895   10.6335   43.1277 O.3     1  UNL1       -0.5058
     14 C          13.1834   11.7314   44.0347 C.ar    1  UNL1        0.0223
     15 O           6.9671   14.5744   42.2483 O.3     1  UNL1       -0.3313
     16 C           7.0010   16.5175   40.7774 C.3     1  UNL1        0.1454
     17 C          10.8827   17.9848   42.3712 C.ar    1  UNL1       -0.0057
     18 C          11.1889   17.3443   40.0629 C.ar    1  UNL1       -0.0473
     19 C          13.9151   12.8929   44.2537 C.ar    1  UNL1        0.1239
     20 C           6.2532   13.7125   41.3171 C.3     1  UNL1        0.1144
     21 O           7.8599   17.4772   40.1523 O.3     1  UNL1       -0.3829
     22 C           6.2306   15.7106   39.7162 C.3     1  UNL1        0.1152
     23 C          11.0686   19.3195   42.0142 C.ar    1  UNL1        0.1589
     24 C          11.3509   18.6880   39.7173 C.ar    1  UNL1       -0.0159
     25 O          15.0345   12.8121   45.0328 O.3     1  UNL1       -0.5065
     26 C           5.3858   14.5737   40.3548 C.3     1  UNL1        0.1120
     27 C           5.4136   12.7065   42.1450 C.3     1  UNL1        0.0796
     28 O           5.3925   16.6230   39.0070 O.3     1  UNL1       -0.3864
     29 O          11.0600   20.3080   42.9519 O.3     1  UNL1       -0.5033
     30 C          11.3070   19.6728   40.6972 C.ar    1  UNL1        0.1583
     31 O           4.2311   15.0988   41.0316 O.3     1  UNL1       -0.3865
     32 O           4.9481   13.3173   43.3783 O.3     1  UNL1       -0.3461
     33 O          11.5398   20.9868   40.4204 O.3     1  UNL1       -0.5033
     34 C           3.6647   12.8104   43.8436 C.3     1  UNL1        0.1879
     35 O           2.6885   13.8787   43.9841 O.3     1  UNL1       -0.3431
     36 C           3.8271   12.1061   45.2125 C.3     1  UNL1        0.1341
     37 C           3.0042   14.9112   44.9581 C.3     1  UNL1        0.0873
     38 O           4.8057   11.0672   45.1097 O.3     1  UNL1       -0.3841
     39 C           4.2185   13.1328   46.3040 C.3     1  UNL1        0.1140
     40 C           3.1786   14.2769   46.3634 C.3     1  UNL1        0.1095
     41 C           1.8815   15.9695   44.9281 C.3     1  UNL1       -0.0361
     42 O           4.2900   12.5038   47.5882 O.3     1  UNL1       -0.3864
     43 O           1.9258   13.7794   46.8624 O.3     1  UNL1       -0.3866
     44 H           8.2507   16.2040   42.4770 H       1  UNL1        0.1084
     45 H          14.0489   15.0150   43.8486 H       1  UNL1        0.0691
     46 H          11.5779   10.0275   43.8410 H       1  UNL1        0.2922
     47 H          13.4885   10.8015   44.5106 H       1  UNL1        0.0691
     48 H           6.2861   17.0497   41.4116 H       1  UNL1        0.0683
     49 H          10.6879   17.7595   43.4173 H       1  UNL1        0.0662
     50 H          11.2663   16.6084   39.2687 H       1  UNL1        0.0626
     51 H           6.9932   13.1574   40.7339 H       1  UNL1        0.0647
     52 H           7.7047   18.3437   40.5690 H       1  UNL1        0.2102
     53 H           6.9451   15.2620   39.0196 H       1  UNL1        0.0648
     54 H          11.5362   18.9633   38.6821 H       1  UNL1        0.0655
     55 H          15.5790   12.0403   44.8136 H       1  UNL1        0.2921
     56 H           5.0298   13.9196   39.5534 H       1  UNL1        0.0647
     57 H           6.0222   11.8307   42.3889 H       1  UNL1        0.0587
     58 H           4.5479   12.3791   41.5627 H       1  UNL1        0.0587
     59 H           5.2343   16.2468   38.1330 H       1  UNL1        0.2100
     60 H          10.3579   20.1232   43.5858 H       1  UNL1        0.2923
     61 H           3.8115   14.4000   41.5608 H       1  UNL1        0.2100
     62 H          11.9992   21.0023   39.5442 H       1  UNL1        0.2923
     63 H           3.2847   12.0946   43.0974 H       1  UNL1        0.0937
     64 H           2.8715   11.6488   45.4835 H       1  UNL1        0.0671
     65 H           3.9431   15.3890   44.6635 H       1  UNL1        0.0621
     66 H           5.6590   11.4704   44.8744 H       1  UNL1        0.2101
     67 H           5.1986   13.5531   46.0608 H       1  UNL1        0.0648
     68 H           3.5447   15.0424   47.0542 H       1  UNL1        0.0646
     69 H           0.9090   15.5207   45.1434 H       1  UNL1        0.0255
     70 H           1.8268   16.4355   43.9418 H       1  UNL1        0.0255
     71 H           2.0721   16.7512   45.6667 H       1  UNL1        0.0255
     72 H           3.3947   12.1756   47.8008 H       1  UNL1        0.2100
     73 H           1.5734   13.1228   46.2329 H       1  UNL1        0.2100
@<TRIPOS>BOND
     1     1     2    2
     2     2     3   ar
     3     2     4   ar
     4     3     5    1
     5     3     6   ar
     6     4     7   ar
     7     4     8   ar
     8     5     9    1
     9     6    10   ar
    10     6    11    1
    11     7    12   ar
    12     8    13    1
    13     8    14   ar
    14     9    15    1
    15     9    16    1
    16    11    17   ar
    17    11    18   ar
    18    12    19   ar
    19    15    20    1
    20    16    21    1
    21    16    22    1
    22    17    23   ar
    23    18    24   ar
    24    19    25    1
    25    20    26    1
    26    20    27    1
    27    22    28    1
    28    23    29    1
    29    23    30   ar
    30    26    31    1
    31    27    32    1
    32    30    33    1
    33    32    34    1
    34    34    35    1
    35    34    36    1
    36    35    37    1
    37    36    38    1
    38    36    39    1
    39    37    40    1
    40    37    41    1
    41    39    42    1
    42    40    43    1
    43     7    10   ar
    44    14    19   ar
    45    22    26    1
    46    24    30   ar
    47    39    40    1
    48     9    44    1
    49    12    45    1
    50    13    46    1
    51    14    47    1
    52    16    48    1
    53    17    49    1
    54    18    50    1
    55    20    51    1
    56    21    52    1
    57    22    53    1
    58    24    54    1
    59    25    55    1
    60    26    56    1
    61    27    57    1
    62    27    58    1
    63    28    59    1
    64    29    60    1
    65    31    61    1
    66    33    62    1
    67    34    63    1
    68    36    64    1
    69    37    65    1
    70    38    66    1
    71    39    67    1
    72    40    68    1
    73    41    69    1
    74    41    70    1
    75    41    71    1
    76    42    72    1
    77    43    73    1
@<TRIPOS>SUBSTRUCTURE
     1 UNL1        1 TEMP              0 ****  ****    0 ROOT


##########                                Name:                  58
##########                DOCK_Rotatable_Bonds:                   4
##########                         Heavy_Atoms:                  12
##########                    Molecular_Weight:             164.204
##########                       Formal_Charge:        -7.45058e-08
##########                     HBond_Acceptors:                   2
##########                        HBond_Donors:                   1
##########                    Continuous_Score:          -25.496923
##########               Continuous_vdw_energy:          -25.468367
##########                Continuous_es_energy:           -0.028556
##########           Internal_energy_repulsive:            4.589336

@<TRIPOS>MOLECULE
58
 24 24 1 0 0
SMALL
GASTEIGER


@<TRIPOS>ATOM
      1 O          24.1114   11.3183   39.8895 O.3     1  UNL1       -0.4915
      2 C          23.3348   10.2781   40.3925 C.ar    1  UNL1        0.1615
      3 C          24.5671   11.5003   38.5284 C.3     1  UNL1        0.0790
      4 C          22.7724   10.2378   41.6809 C.ar    1  UNL1        0.1585
      5 C          23.1058    9.2132   39.5202 C.ar    1  UNL1       -0.0128
      6 O          22.9228   11.2573   42.5701 O.3     1  UNL1       -0.5033
      7 C          22.0149    9.1347   42.0736 C.ar    1  UNL1       -0.0163
      8 C          22.3348    8.1159   39.9077 C.ar    1  UNL1       -0.0400
      9 C          21.7971    8.0780   41.1939 C.ar    1  UNL1       -0.0546
     10 C          22.0769    6.9763   38.9357 C.3     1  UNL1       -0.0096
     11 C          23.1722    6.8588   37.9039 C.2     1  UNL1       -0.0868
     12 C          23.0707    7.3210   36.6493 C.2     1  UNL1       -0.1023
     13 H          25.0444   12.4807   38.4501 H       1  UNL1        0.0660
     14 H          23.7144   11.4595   37.8440 H       1  UNL1        0.0660
     15 H          25.3003   10.7280   38.2801 H       1  UNL1        0.0660
     16 H          23.5343    9.2446   38.5213 H       1  UNL1        0.0658
     17 H          23.5264   11.9041   42.1678 H       1  UNL1        0.2923
     18 H          21.5824    9.1020   43.0705 H       1  UNL1        0.0655
     19 H          21.1991    7.2275   41.5125 H       1  UNL1        0.0622
     20 H          21.1189    7.1352   38.4345 H       1  UNL1        0.0355
     21 H          21.9752    6.0427   39.4950 H       1  UNL1        0.0355
     22 H          24.0823    6.3682   38.2481 H       1  UNL1        0.0570
     23 H          22.1692    7.8156   36.2951 H       1  UNL1        0.0532
     24 H          23.8916    7.2166   35.9444 H       1  UNL1        0.0532
@<TRIPOS>BOND
     1     1     2    1
     2     1     3    1
     3     2     4   ar
     4     2     5   ar
     5     4     6    1
     6     4     7   ar
     7     5     8   ar
     8     7     9   ar
     9     8    10    1
    10    10    11    1
    11    11    12    2
    12     8     9   ar
    13     3    13    1
    14     3    14    1
    15     3    15    1
    16     5    16    1
    17     6    17    1
    18     7    18    1
    19     9    19    1
    20    10    20    1
    21    10    21    1
    22    11    22    1
    23    12    23    1
    24    12    24    1
@<TRIPOS>SUBSTRUCTURE
     1 UNL1        1 TEMP              0 ****  ****    0 ROOT


##########                                Name:                  58
##########                DOCK_Rotatable_Bonds:                   4
##########                         Heavy_Atoms:                  12
##########                    Molecular_Weight:             164.204
##########                       Formal_Charge:        -7.45058e-08
##########                     HBond_Acceptors:                   2
##########                        HBond_Donors:                   1
##########                    Continuous_Score:          -24.543556
##########               Continuous_vdw_energy:          -23.259212
##########                Continuous_es_energy:           -1.284343
##########           Internal_energy_repulsive:            2.806424

@<TRIPOS>MOLECULE
58
 24 24 1 0 0
SMALL
GASTEIGER


@<TRIPOS>ATOM
      1 O          21.7157    7.4891   39.3396 O.3     1  UNL1       -0.4915
      2 C          22.1345    8.5428   40.1471 C.ar    1  UNL1        0.1615
      3 C          22.1670    7.1692   38.0026 C.3     1  UNL1        0.0790
      4 C          21.9659    8.6103   41.5418 C.ar    1  UNL1        0.1585
      5 C          22.7792    9.5926   39.4916 C.ar    1  UNL1       -0.0128
      6 O          21.3806    7.6067   42.2509 O.3     1  UNL1       -0.5033
      7 C          22.4246    9.7248   42.2435 C.ar    1  UNL1       -0.0163
      8 C          23.2520   10.7012   40.1959 C.ar    1  UNL1       -0.0400
      9 C          23.0633   10.7661   41.5760 C.ar    1  UNL1       -0.0546
     10 C          23.9725   11.8241   39.4676 C.3     1  UNL1       -0.0096
     11 C          25.2859   11.3634   38.8837 C.2     1  UNL1       -0.0868
     12 C          25.4902   11.1535   37.5752 C.2     1  UNL1       -0.1023
     13 H          21.7309    6.2107   37.7088 H       1  UNL1        0.0660
     14 H          23.2579    7.0872   37.9900 H       1  UNL1        0.0660
     15 H          21.8285    7.9411   37.3060 H       1  UNL1        0.0660
     16 H          22.9164    9.5403   38.4141 H       1  UNL1        0.0658
     17 H          21.4212    6.8049   41.7032 H       1  UNL1        0.2923
     18 H          22.2918    9.7785   43.3212 H       1  UNL1        0.0655
     19 H          23.4209   11.6258   42.1378 H       1  UNL1        0.0622
     20 H          24.1507   12.6510   40.1594 H       1  UNL1        0.0355
     21 H          23.3219   12.2198   38.6834 H       1  UNL1        0.0355
     22 H          26.0870   11.2129   39.6069 H       1  UNL1        0.0570
     23 H          24.6998   11.3038   36.8435 H       1  UNL1        0.0532
     24 H          26.4582   10.8268   37.2035 H       1  UNL1        0.0532
@<TRIPOS>BOND
     1     1     2    1
     2     1     3    1
     3     2     4   ar
     4     2     5   ar
     5     4     6    1
     6     4     7   ar
     7     5     8   ar
     8     7     9   ar
     9     8    10    1
    10    10    11    1
    11    11    12    2
    12     8     9   ar
    13     3    13    1
    14     3    14    1
    15     3    15    1
    16     5    16    1
    17     6    17    1
    18     7    18    1
    19     9    19    1
    20    10    20    1
    21    10    21    1
    22    11    22    1
    23    12    23    1
    24    12    24    1
@<TRIPOS>SUBSTRUCTURE
     1 UNL1        1 TEMP              0 ****  ****    0 ROOT


##########                                Name:                  58
##########                DOCK_Rotatable_Bonds:                   4
##########                         Heavy_Atoms:                  12
##########                    Molecular_Weight:             164.204
##########                       Formal_Charge:        -7.45058e-08
##########                     HBond_Acceptors:                   2
##########                        HBond_Donors:                   1
##########                    Continuous_Score:          -24.995974
##########               Continuous_vdw_energy:          -24.204304
##########                Continuous_es_energy:           -0.791669
##########           Internal_energy_repulsive:            1.695970

@<TRIPOS>MOLECULE
58
 24 24 1 0 0
SMALL
GASTEIGER


@<TRIPOS>ATOM
      1 O          21.4277    8.4541   40.9439 O.3     1  UNL1       -0.4915
      2 C          22.4735    8.8380   40.1091 C.ar    1  UNL1        0.1615
      3 C          21.5102    8.0425   42.3286 C.3     1  UNL1        0.0790
      4 C          23.3184    9.9413   40.3253 C.ar    1  UNL1        0.1585
      5 C          22.6798    8.0374   38.9849 C.ar    1  UNL1       -0.0128
      6 O          23.1993   10.7427   41.4192 O.3     1  UNL1       -0.5033
      7 C          24.3315   10.2297   39.4114 C.ar    1  UNL1       -0.0163
      8 C          23.7035    8.3169   38.0780 C.ar    1  UNL1       -0.0400
      9 C          24.5239    9.4239   38.2927 C.ar    1  UNL1       -0.0546
     10 C          23.9276    7.4197   36.8718 C.3     1  UNL1       -0.0096
     11 C          23.4944    8.0851   35.5881 C.2     1  UNL1       -0.0868
     12 C          22.2140    8.2898   35.2468 C.2     1  UNL1       -0.1023
     13 H          20.4951    7.9330   42.7195 H       1  UNL1        0.0660
     14 H          22.0395    8.8034   42.9099 H       1  UNL1        0.0660
     15 H          22.0219    7.0785   42.3955 H       1  UNL1        0.0660
     16 H          22.0318    7.1802   38.8184 H       1  UNL1        0.0658
     17 H          24.0950   11.0263   41.6678 H       1  UNL1        0.2923
     18 H          24.9830   11.0840   39.5769 H       1  UNL1        0.0655
     19 H          25.3221    9.6579   37.5922 H       1  UNL1        0.0622
     20 H          23.3740    6.4869   37.0042 H       1  UNL1        0.0355
     21 H          24.9834    7.1412   36.8220 H       1  UNL1        0.0355
     22 H          24.3062    8.4067   34.9363 H       1  UNL1        0.0570
     23 H          21.3953    7.9768   35.8905 H       1  UNL1        0.0532
     24 H          21.9536    8.7796   34.3118 H       1  UNL1        0.0532
@<TRIPOS>BOND
     1     1     2    1
     2     1     3    1
     3     2     4   ar
     4     2     5   ar
     5     4     6    1
     6     4     7   ar
     7     5     8   ar
     8     7     9   ar
     9     8    10    1
    10    10    11    1
    11    11    12    2
    12     8     9   ar
    13     3    13    1
    14     3    14    1
    15     3    15    1
    16     5    16    1
    17     6    17    1
    18     7    18    1
    19     9    19    1
    20    10    20    1
    21    10    21    1
    22    11    22    1
    23    12    23    1
    24    12    24    1
@<TRIPOS>SUBSTRUCTURE
     1 UNL1        1 TEMP              0 ****  ****    0 ROOT


##########                                Name:                  61
##########                DOCK_Rotatable_Bonds:                   6
##########                         Heavy_Atoms:                  25
##########                    Molecular_Weight:             339.391
##########                       Formal_Charge:         0.000499964
##########                     HBond_Acceptors:                   5
##########                        HBond_Donors:                   0
##########                    Continuous_Score:          -39.574905
##########               Continuous_vdw_energy:          -37.874516
##########                Continuous_es_energy:           -1.700390
##########           Internal_energy_repulsive:           11.724783

@<TRIPOS>MOLECULE
61
 46 48 1 0 0
SMALL
GASTEIGER


@<TRIPOS>ATOM
      1 O          22.5064    8.9846   42.1695 O.3     1  UNL1       -0.4914
      2 C          22.8481    9.8734   41.1578 C.ar    1  UNL1        0.1621
      3 C          21.5675    7.8918   42.0468 C.3     1  UNL1        0.0790
      4 C          23.1646    9.3857   39.8745 C.ar    1  UNL1        0.1621
      5 C          22.9121   11.2537   41.4044 C.ar    1  UNL1       -0.0069
      6 O          23.1551    8.0479   39.4930 O.3     1  UNL1       -0.4914
      7 C          23.5390   10.2794   38.8767 C.ar    1  UNL1       -0.0085
      8 C          23.2946   12.1531   40.3981 C.ar    1  UNL1        0.0074
      9 C          23.0543    7.5503   38.1385 C.3     1  UNL1        0.0790
     10 C          23.5997   11.6469   39.1280 C.ar    1  UNL1       -0.0110
     11 C          23.4062   13.5422   40.6023 C.ar    1  UNL1        0.0534
     12 C          23.9814   12.5217   38.1135 C.ar    1  UNL1       -0.0357
     13 N          23.7618   14.3901   39.6056 N.ar    1  UNL1       -0.2589
     14 C          23.2902   14.2210   41.9676 C.3     1  UNL1        0.0155
     15 C          24.0371   13.8831   38.3865 C.ar    1  UNL1        0.0285
     16 C          21.8317   14.2739   42.4203 C.ar    1  UNL1       -0.0379
     17 C          20.8313   14.5236   41.4822 C.ar    1  UNL1       -0.0128
     18 C          21.4894   14.1179   43.7610 C.ar    1  UNL1       -0.0545
     19 C          19.4935   14.6784   41.8708 C.ar    1  UNL1        0.1618
     20 C          20.1603   14.2442   44.1571 C.ar    1  UNL1       -0.0160
     21 O          18.5196   14.9780   40.9229 O.3     1  UNL1       -0.4914
     22 C          19.1590   14.5507   43.2317 C.ar    1  UNL1        0.1615
     23 C          18.3820   14.2981   39.6538 C.3     1  UNL1        0.0790
     24 O          17.8823   14.7071   43.7615 O.3     1  UNL1       -0.4915
     25 C          16.7103   13.9885   43.3128 C.3     1  UNL1        0.0790
     26 H          22.0996    6.9810   41.7593 H       1  UNL1        0.0660
     27 H          20.7955    8.1336   41.3125 H       1  UNL1        0.0660
     28 H          21.0939    7.7424   43.0211 H       1  UNL1        0.0660
     29 H          22.6523   11.6251   42.3880 H       1  UNL1        0.0662
     30 H          23.7940    9.8971   37.8911 H       1  UNL1        0.0661
     31 H          23.1010    6.4589   38.1585 H       1  UNL1        0.0660
     32 H          23.8850    7.9408   37.5442 H       1  UNL1        0.0660
     33 H          22.1012    7.8638   37.7043 H       1  UNL1        0.0660
     34 H          24.2343   12.1528   37.1221 H       1  UNL1        0.0639
     35 H          23.7336   15.2171   41.9548 H       1  UNL1        0.0377
     36 H          23.8661   13.6575   42.7072 H       1  UNL1        0.0377
     37 H          24.3316   14.6015   37.6243 H       1  UNL1        0.0830
     38 H          21.1066   14.6165   40.4384 H       1  UNL1        0.0658
     39 H          22.2536   13.9098   44.5041 H       1  UNL1        0.0622
     40 H          19.9021   14.1310   45.2066 H       1  UNL1        0.0655
     41 H          17.6043   14.7951   39.0680 H       1  UNL1        0.0660
     42 H          18.0963   13.2556   39.8261 H       1  UNL1        0.0660
     43 H          19.3288   14.3425   39.1078 H       1  UNL1        0.0660
     44 H          15.8237   14.4378   43.7645 H       1  UNL1        0.0660
     45 H          16.7830   12.9413   43.6207 H       1  UNL1        0.0660
     46 H          16.6373   14.0521   42.2227 H       1  UNL1        0.0660
@<TRIPOS>BOND
     1     1     2    1
     2     1     3    1
     3     2     4   ar
     4     2     5   ar
     5     4     6    1
     6     4     7   ar
     7     5     8   ar
     8     6     9    1
     9     7    10   ar
    10     8    11   ar
    11    10    12   ar
    12    11    13   ar
    13    11    14    1
    14    12    15   ar
    15    14    16    1
    16    16    17   ar
    17    16    18   ar
    18    17    19   ar
    19    18    20   ar
    20    19    21    1
    21    19    22   ar
    22    21    23    1
    23    22    24    1
    24    24    25    1
    25     8    10   ar
    26    13    15   ar
    27    20    22   ar
    28     3    26    1
    29     3    27    1
    30     3    28    1
    31     5    29    1
    32     7    30    1
    33     9    31    1
    34     9    32    1
    35     9    33    1
    36    12    34    1
    37    14    35    1
    38    14    36    1
    39    15    37    1
    40    17    38    1
    41    18    39    1
    42    20    40    1
    43    23    41    1
    44    23    42    1
    45    23    43    1
    46    25    44    1
    47    25    45    1
    48    25    46    1
@<TRIPOS>SUBSTRUCTURE
     1 UNL1        1 TEMP              0 ****  ****    0 ROOT


##########                                Name:                  61
##########                DOCK_Rotatable_Bonds:                   6
##########                         Heavy_Atoms:                  25
##########                    Molecular_Weight:             339.391
##########                       Formal_Charge:         0.000499964
##########                     HBond_Acceptors:                   5
##########                        HBond_Donors:                   0
##########                    Continuous_Score:          -32.065281
##########               Continuous_vdw_energy:          -29.323288
##########                Continuous_es_energy:           -2.741994
##########           Internal_energy_repulsive:           16.073885

@<TRIPOS>MOLECULE
61
 46 48 1 0 0
SMALL
GASTEIGER


@<TRIPOS>ATOM
      1 O           8.4239    9.2876   43.3440 O.3     1  UNL1       -0.4914
      2 C           8.6990   10.6492   43.3638 C.ar    1  UNL1        0.1621
      3 C           9.4098    8.2316   43.2822 C.3     1  UNL1        0.0790
      4 C           7.6395   11.5776   43.3811 C.ar    1  UNL1        0.1621
      5 C          10.0225   11.1159   43.3365 C.ar    1  UNL1       -0.0069
      6 O           6.2853   11.2590   43.3968 O.3     1  UNL1       -0.4914
      7 C           7.9233   12.9392   43.3661 C.ar    1  UNL1       -0.0085
      8 C          10.3068   12.4895   43.3165 C.ar    1  UNL1        0.0074
      9 C           5.2423   12.0107   44.0596 C.3     1  UNL1        0.0790
     10 C           9.2381   13.3949   43.3396 C.ar    1  UNL1       -0.0110
     11 C          11.6144   13.0090   43.2561 C.ar    1  UNL1        0.0534
     12 C           9.4968   14.7634   43.3210 C.ar    1  UNL1       -0.0357
     13 N          11.8599   14.3427   43.2553 N.ar    1  UNL1       -0.2589
     14 C          12.8666   12.1588   43.0380 C.3     1  UNL1        0.0155
     15 C          10.8168   15.1968   43.2928 C.ar    1  UNL1        0.0285
     16 C          14.0959   12.8508   43.6252 C.ar    1  UNL1       -0.0379
     17 C          15.1244   13.2576   42.7769 C.ar    1  UNL1       -0.0128
     18 C          14.2241   13.0446   44.9983 C.ar    1  UNL1       -0.0545
     19 C          16.3107   13.8054   43.2842 C.ar    1  UNL1        0.1618
     20 C          15.3873   13.6109   45.5136 C.ar    1  UNL1       -0.0160
     21 O          17.3443   14.1569   42.4212 O.3     1  UNL1       -0.4914
     22 C          16.4464   13.9693   44.6752 C.ar    1  UNL1        0.1615
     23 C          17.2876   14.0164   40.9829 C.3     1  UNL1        0.0790
     24 O          17.5742   14.4705   45.3171 O.3     1  UNL1       -0.4915
     25 C          18.7735   14.9194   44.6452 C.3     1  UNL1        0.0790
     26 H           9.6739    7.9159   44.2952 H       1  UNL1        0.0660
     27 H          10.2969    8.5699   42.7418 H       1  UNL1        0.0660
     28 H           8.9682    7.3884   42.7438 H       1  UNL1        0.0660
     29 H          10.8337   10.3984   43.3397 H       1  UNL1        0.0662
     30 H           7.1020   13.6520   43.3673 H       1  UNL1        0.0661
     31 H           4.2818   11.5261   43.8687 H       1  UNL1        0.0660
     32 H           5.2218   13.0305   43.6657 H       1  UNL1        0.0660
     33 H           5.4316   12.0269   45.1362 H       1  UNL1        0.0660
     34 H           8.6846   15.4869   43.3268 H       1  UNL1        0.0639
     35 H          13.0121   11.9295   41.9822 H       1  UNL1        0.0377
     36 H          12.7419   11.1899   43.5300 H       1  UNL1        0.0377
     37 H          11.0645   16.2562   43.2759 H       1  UNL1        0.0830
     38 H          15.0018   13.1263   41.7085 H       1  UNL1        0.0658
     39 H          13.4276   12.7461   45.6736 H       1  UNL1        0.0622
     40 H          15.4842   13.7499   46.5870 H       1  UNL1        0.0655
     41 H          18.2636   14.2735   40.5631 H       1  UNL1        0.0660
     42 H          16.5288   14.6936   40.5786 H       1  UNL1        0.0660
     43 H          17.0442   12.9821   40.7233 H       1  UNL1        0.0660
     44 H          19.5575   15.0803   45.3877 H       1  UNL1        0.0660
     45 H          18.5703   15.8590   44.1229 H       1  UNL1        0.0660
     46 H          19.0987   14.1580   43.9294 H       1  UNL1        0.0660
@<TRIPOS>BOND
     1     1     2    1
     2     1     3    1
     3     2     4   ar
     4     2     5   ar
     5     4     6    1
     6     4     7   ar
     7     5     8   ar
     8     6     9    1
     9     7    10   ar
    10     8    11   ar
    11    10    12   ar
    12    11    13   ar
    13    11    14    1
    14    12    15   ar
    15    14    16    1
    16    16    17   ar
    17    16    18   ar
    18    17    19   ar
    19    18    20   ar
    20    19    21    1
    21    19    22   ar
    22    21    23    1
    23    22    24    1
    24    24    25    1
    25     8    10   ar
    26    13    15   ar
    27    20    22   ar
    28     3    26    1
    29     3    27    1
    30     3    28    1
    31     5    29    1
    32     7    30    1
    33     9    31    1
    34     9    32    1
    35     9    33    1
    36    12    34    1
    37    14    35    1
    38    14    36    1
    39    15    37    1
    40    17    38    1
    41    18    39    1
    42    20    40    1
    43    23    41    1
    44    23    42    1
    45    23    43    1
    46    25    44    1
    47    25    45    1
    48    25    46    1
@<TRIPOS>SUBSTRUCTURE
     1 UNL1        1 TEMP              0 ****  ****    0 ROOT


##########                                Name:                  61
##########                DOCK_Rotatable_Bonds:                   6
##########                         Heavy_Atoms:                  25
##########                    Molecular_Weight:             339.391
##########                       Formal_Charge:         0.000499964
##########                     HBond_Acceptors:                   5
##########                        HBond_Donors:                   0
##########                    Continuous_Score:          -37.470806
##########               Continuous_vdw_energy:          -34.340302
##########                Continuous_es_energy:           -3.130504
##########           Internal_energy_repulsive:           15.800564

@<TRIPOS>MOLECULE
61
 46 48 1 0 0
SMALL
GASTEIGER


@<TRIPOS>ATOM
      1 O           9.3036   14.5659   40.9980 O.3     1  UNL1       -0.4914
      2 C          10.1572   13.6863   41.6522 C.ar    1  UNL1        0.1621
      3 C           9.6152   15.9328   40.6441 C.3     1  UNL1        0.0790
      4 C           9.6529   12.4786   42.1737 C.ar    1  UNL1        0.1621
      5 C          11.5143   13.9982   41.8282 C.ar    1  UNL1       -0.0069
      6 O           8.3331   12.0479   42.0846 O.3     1  UNL1       -0.4914
      7 C          10.5070   11.6196   42.8573 C.ar    1  UNL1       -0.0085
      8 C          12.3732   13.1331   42.5221 C.ar    1  UNL1        0.0074
      9 C           7.2126   12.8318   41.6130 C.3     1  UNL1        0.0790
     10 C          11.8518   11.9351   43.0274 C.ar    1  UNL1       -0.0110
     11 C          13.7336   13.4140   42.7543 C.ar    1  UNL1        0.0534
     12 C          12.6865   11.0605   43.7193 C.ar    1  UNL1       -0.0357
     13 N          14.5448   12.5503   43.4139 N.ar    1  UNL1       -0.2589
     14 C          14.4009   14.7518   42.4327 C.3     1  UNL1        0.0155
     15 C          14.0257   11.3959   43.8794 C.ar    1  UNL1        0.0285
     16 C          15.7566   14.8583   43.1296 C.ar    1  UNL1       -0.0379
     17 C          16.9213   14.6094   42.4053 C.ar    1  UNL1       -0.0128
     18 C          15.8453   15.1592   44.4863 C.ar    1  UNL1       -0.0545
     19 C          18.1764   14.5993   43.0292 C.ar    1  UNL1        0.1618
     20 C          17.0887   15.1770   45.1132 C.ar    1  UNL1       -0.0160
     21 O          19.3201   14.2979   42.2958 O.3     1  UNL1       -0.4914
     22 C          18.2558   14.8731   44.4071 C.ar    1  UNL1        0.1615
     23 C          19.4498   14.5007   40.8696 C.3     1  UNL1        0.0790
     24 O          19.4259   14.8688   45.1594 O.3     1  UNL1       -0.4915
     25 C          20.6977   14.3542   44.7019 C.3     1  UNL1        0.0790
     26 H          10.0289   15.9651   39.6325 H       1  UNL1        0.0660
     27 H          10.3197   16.3607   41.3609 H       1  UNL1        0.0660
     28 H           8.6866   16.5095   40.6740 H       1  UNL1        0.0660
     29 H          11.9006   14.9202   41.4113 H       1  UNL1        0.0662
     30 H          10.1106   10.6943   43.2686 H       1  UNL1        0.0661
     31 H           6.3132   12.2117   41.6353 H       1  UNL1        0.0660
     32 H           7.4041   13.1613   40.5882 H       1  UNL1        0.0660
     33 H           7.0715   13.6970   42.2664 H       1  UNL1        0.0660
     34 H          12.3037   10.1296   44.1316 H       1  UNL1        0.0639
     35 H          13.7566   15.5907   42.6973 H       1  UNL1        0.0377
     36 H          14.5548   14.8344   41.3530 H       1  UNL1        0.0377
     37 H          14.7124   10.7430   44.4141 H       1  UNL1        0.0830
     38 H          16.8418   14.4029   41.3448 H       1  UNL1        0.0658
     39 H          14.9498   15.3688   45.0639 H       1  UNL1        0.0622
     40 H          17.1491   15.4031   46.1745 H       1  UNL1        0.0655
     41 H          20.4079   14.0910   40.5392 H       1  UNL1        0.0660
     42 H          19.4173   15.5720   40.6479 H       1  UNL1        0.0660
     43 H          18.6380   13.9849   40.3489 H       1  UNL1        0.0660
     44 H          21.3852   14.3026   45.5483 H       1  UNL1        0.0660
     45 H          21.1100   15.0222   43.9400 H       1  UNL1        0.0660
     46 H          20.5578   13.3528   44.2830 H       1  UNL1        0.0660
@<TRIPOS>BOND
     1     1     2    1
     2     1     3    1
     3     2     4   ar
     4     2     5   ar
     5     4     6    1
     6     4     7   ar
     7     5     8   ar
     8     6     9    1
     9     7    10   ar
    10     8    11   ar
    11    10    12   ar
    12    11    13   ar
    13    11    14    1
    14    12    15   ar
    15    14    16    1
    16    16    17   ar
    17    16    18   ar
    18    17    19   ar
    19    18    20   ar
    20    19    21    1
    21    19    22   ar
    22    21    23    1
    23    22    24    1
    24    24    25    1
    25     8    10   ar
    26    13    15   ar
    27    20    22   ar
    28     3    26    1
    29     3    27    1
    30     3    28    1
    31     5    29    1
    32     7    30    1
    33     9    31    1
    34     9    32    1
    35     9    33    1
    36    12    34    1
    37    14    35    1
    38    14    36    1
    39    15    37    1
    40    17    38    1
    41    18    39    1
    42    20    40    1
    43    23    41    1
    44    23    42    1
    45    23    43    1
    46    25    44    1
    47    25    45    1
    48    25    46    1
@<TRIPOS>SUBSTRUCTURE
     1 UNL1        1 TEMP              0 ****  ****    0 ROOT


##########                                Name:                  64
##########                DOCK_Rotatable_Bonds:                   4
##########                         Heavy_Atoms:                  21
##########                    Molecular_Weight:             284.225
##########                       Formal_Charge:         9.99868e-05
##########                     HBond_Acceptors:                   6
##########                        HBond_Donors:                   3
##########                    Continuous_Score:          -32.681736
##########               Continuous_vdw_energy:          -30.589973
##########                Continuous_es_energy:           -2.091764
##########           Internal_energy_repulsive:           11.759278

@<TRIPOS>MOLECULE
64
 29 31 1 0 0
SMALL
GASTEIGER


@<TRIPOS>ATOM
      1 O          24.1302   11.5550   38.1353 O.2     1  UNL1       -0.2864
      2 C          23.6491   11.0728   39.1446 C.2     1  UNL1        0.2015
      3 C          23.5182   11.8976   40.4016 C.ar    1  UNL1        0.0746
      4 C          23.1559    9.6474   39.1466 C.ar    1  UNL1        0.0745
      5 C          23.9202   13.2471   40.4409 C.ar    1  UNL1        0.1291
      6 C          22.9805   11.3245   41.5588 C.ar    1  UNL1        0.0374
      7 C          23.2188    8.8493   37.9869 C.ar    1  UNL1        0.1283
      8 C          22.6146    9.0968   40.3163 C.ar    1  UNL1        0.0366
      9 O          24.4875   13.8476   39.3468 O.3     1  UNL1       -0.5060
     10 C          23.7475   14.0098   41.6038 C.ar    1  UNL1       -0.0055
     11 C          22.5171    9.9006   41.5749 C.2     1  UNL1        0.1948
     12 C          22.8587   12.0859   42.7252 C.ar    1  UNL1       -0.0360
     13 O          23.7300    9.3195   36.8112 O.3     1  UNL1       -0.5060
     14 C          22.7439    7.5398   38.0006 C.ar    1  UNL1       -0.0194
     15 C          22.1479    7.7774   40.3163 C.ar    1  UNL1       -0.0500
     16 C          23.2155   13.4344   42.7635 C.ar    1  UNL1        0.0630
     17 O          22.0498    9.4122   42.5860 O.2     1  UNL1       -0.2866
     18 C          22.2087    7.0028   39.1638 C.ar    1  UNL1       -0.0576
     19 C          23.0271   14.1849   44.0628 C.2     1  UNL1        0.3369
     20 O          22.1097   13.9483   44.8218 O.2     1  UNL1       -0.2451
     21 O          23.8776   15.1361   44.3571 O.3     1  UNL1       -0.4771
     22 H          23.7691   14.2485   38.7777 H       1  UNL1        0.2922
     23 H          24.0613   15.0508   41.6043 H       1  UNL1        0.0662
     24 H          22.4496   11.6241   43.6210 H       1  UNL1        0.0633
     25 H          23.9628   10.2721   36.9364 H       1  UNL1        0.2922
     26 H          22.7896    6.9343   37.0981 H       1  UNL1        0.0654
     27 H          21.7237    7.3413   41.2183 H       1  UNL1        0.0625
     28 H          21.8363    5.9813   39.1719 H       1  UNL1        0.0619
     29 H          24.6353   15.1051   43.7593 H       1  UNL1        0.2954
@<TRIPOS>BOND
     1     1     2    2
     2     2     3    1
     3     2     4    1
     4     3     5   ar
     5     3     6   ar
     6     4     7   ar
     7     4     8   ar
     8     5     9    1
     9     5    10   ar
    10     6    11    1
    11     6    12   ar
    12     7    13    1
    13     7    14   ar
    14     8    15   ar
    15    10    16   ar
    16    11    17    2
    17    14    18   ar
    18    16    19    1
    19    19    20    2
    20    19    21    1
    21     8    11    1
    22    12    16   ar
    23    15    18   ar
    24     9    22    1
    25    10    23    1
    26    12    24    1
    27    13    25    1
    28    14    26    1
    29    15    27    1
    30    18    28    1
    31    21    29    1
@<TRIPOS>SUBSTRUCTURE
     1 UNL1        1 TEMP              0 ****  ****    0 ROOT


##########                                Name:                  64
##########                DOCK_Rotatable_Bonds:                   4
##########                         Heavy_Atoms:                  21
##########                    Molecular_Weight:             284.225
##########                       Formal_Charge:         9.99868e-05
##########                     HBond_Acceptors:                   6
##########                        HBond_Donors:                   3
##########                    Continuous_Score:          -31.613764
##########               Continuous_vdw_energy:          -29.261225
##########                Continuous_es_energy:           -2.352539
##########           Internal_energy_repulsive:           12.802218

@<TRIPOS>MOLECULE
64
 29 31 1 0 0
SMALL
GASTEIGER


@<TRIPOS>ATOM
      1 O          22.4785   10.3133   42.9776 O.2     1  UNL1       -0.2864
      2 C          22.8279   10.8495   41.9417 C.2     1  UNL1        0.2015
      3 C          22.8826   10.0662   40.6529 C.ar    1  UNL1        0.0746
      4 C          23.1910   12.3134   41.9276 C.ar    1  UNL1        0.0745
      5 C          22.5099    8.7088   40.6010 C.ar    1  UNL1        0.1291
      6 C          23.3038   10.6911   39.4745 C.ar    1  UNL1        0.0374
      7 C          23.1169   13.0973   43.0962 C.ar    1  UNL1        0.1283
      8 C          23.6038   12.9197   40.7332 C.ar    1  UNL1        0.0366
      9 O          22.1252    8.0378   41.7329 O.3     1  UNL1       -0.5060
     10 C          22.5229    8.0109   39.3857 C.ar    1  UNL1       -0.0055
     11 C          23.6944   12.1368   39.4609 C.2     1  UNL1        0.1948
     12 C          23.3563    9.9677   38.2789 C.ar    1  UNL1       -0.0360
     13 O          22.7202   12.5757   44.2942 O.3     1  UNL1       -0.5060
     14 C          23.4399   14.4520   43.0631 C.ar    1  UNL1       -0.0194
     15 C          23.9316   14.2801   40.7173 C.ar    1  UNL1       -0.0500
     16 C          22.9505    8.6346   38.2079 C.ar    1  UNL1        0.0630
     17 O          24.0578   12.6711   38.4305 O.2     1  UNL1       -0.2866
     18 C          23.8472   15.0443   41.8752 C.ar    1  UNL1       -0.0576
     19 C          23.0201    7.9390   36.8670 C.2     1  UNL1        0.3369
     20 O          22.8364    6.7453   36.7447 O.2     1  UNL1       -0.2451
     21 O          23.3119    8.6572   35.8117 O.3     1  UNL1       -0.4771
     22 H          21.8607    7.1036   41.4919 H       1  UNL1        0.2922
     23 H          22.2247    6.9655   39.3736 H       1  UNL1        0.0662
     24 H          23.6968   10.4633   37.3725 H       1  UNL1        0.0633
     25 H          22.5410   11.6119   44.1654 H       1  UNL1        0.2922
     26 H          23.3720   15.0506   43.9687 H       1  UNL1        0.0654
     27 H          24.2507   14.7607   39.7949 H       1  UNL1        0.0625
     28 H          24.0965   16.1024   41.8507 H       1  UNL1        0.0619
     29 H          23.4232    9.5843   36.0572 H       1  UNL1        0.2954
@<TRIPOS>BOND
     1     1     2    2
     2     2     3    1
     3     2     4    1
     4     3     5   ar
     5     3     6   ar
     6     4     7   ar
     7     4     8   ar
     8     5     9    1
     9     5    10   ar
    10     6    11    1
    11     6    12   ar
    12     7    13    1
    13     7    14   ar
    14     8    15   ar
    15    10    16   ar
    16    11    17    2
    17    14    18   ar
    18    16    19    1
    19    19    20    2
    20    19    21    1
    21     8    11    1
    22    12    16   ar
    23    15    18   ar
    24     9    22    1
    25    10    23    1
    26    12    24    1
    27    13    25    1
    28    14    26    1
    29    15    27    1
    30    18    28    1
    31    21    29    1
@<TRIPOS>SUBSTRUCTURE
     1 UNL1        1 TEMP              0 ****  ****    0 ROOT


##########                                Name:                  64
##########                DOCK_Rotatable_Bonds:                   4
##########                         Heavy_Atoms:                  21
##########                    Molecular_Weight:             284.225
##########                       Formal_Charge:         9.99868e-05
##########                     HBond_Acceptors:                   6
##########                        HBond_Donors:                   3
##########                    Continuous_Score:          -31.615738
##########               Continuous_vdw_energy:          -29.286926
##########                Continuous_es_energy:           -2.328811
##########           Internal_energy_repulsive:           12.703928

@<TRIPOS>MOLECULE
64
 29 31 1 0 0
SMALL
GASTEIGER


@<TRIPOS>ATOM
      1 O          22.4994   10.2842   42.9225 O.2     1  UNL1       -0.2864
      2 C          22.8627   10.8252   41.8939 C.2     1  UNL1        0.2015
      3 C          22.9130   10.0536   40.5978 C.ar    1  UNL1        0.0746
      4 C          23.2479   12.2835   41.8960 C.ar    1  UNL1        0.0745
      5 C          22.5202    8.7025   40.5307 C.ar    1  UNL1        0.1291
      6 C          23.3503   10.6835   39.4279 C.ar    1  UNL1        0.0374
      7 C          23.1790   13.0571   43.0718 C.ar    1  UNL1        0.1283
      8 C          23.6766   12.8949   40.7099 C.ar    1  UNL1        0.0366
      9 O          22.1192    8.0265   41.6538 O.3     1  UNL1       -0.5060
     10 C          22.5298    8.0163   39.3088 C.ar    1  UNL1       -0.0055
     11 C          23.7625   12.1232   39.4306 C.2     1  UNL1        0.1948
     12 C          23.3987    9.9710   38.2257 C.ar    1  UNL1       -0.0360
     13 O          22.7678   12.5301   44.2625 O.3     1  UNL1       -0.5060
     14 C          23.5225   14.4071   43.0537 C.ar    1  UNL1       -0.0194
     15 C          24.0248   14.2504   40.7090 C.ar    1  UNL1       -0.0500
     16 C          22.9732    8.6448   38.1394 C.ar    1  UNL1        0.0630
     17 O          24.1398   12.6618   38.4075 O.2     1  UNL1       -0.2866
     18 C          23.9453   15.0046   41.8738 C.ar    1  UNL1       -0.0576
     19 C          23.0400    7.9611   36.7923 C.2     1  UNL1        0.3369
     20 O          22.9125    6.7605   36.6666 O.2     1  UNL1       -0.2451
     21 O          23.2665    8.6990   35.7343 O.3     1  UNL1       -0.4771
     22 H          21.9242    7.0743   41.4170 H       1  UNL1        0.2922
     23 H          22.2159    6.9757   39.2848 H       1  UNL1        0.0662
     24 H          23.7517   10.4700   37.3261 H       1  UNL1        0.0633
     25 H          22.5690   11.5717   44.1219 H       1  UNL1        0.2922
     26 H          23.4584   14.9978   43.9647 H       1  UNL1        0.0654
     27 H          24.3562   14.7351   39.7931 H       1  UNL1        0.0625
     28 H          24.2107   16.0590   41.8610 H       1  UNL1        0.0619
     29 H          23.3607    9.6263   35.9862 H       1  UNL1        0.2954
@<TRIPOS>BOND
     1     1     2    2
     2     2     3    1
     3     2     4    1
     4     3     5   ar
     5     3     6   ar
     6     4     7   ar
     7     4     8   ar
     8     5     9    1
     9     5    10   ar
    10     6    11    1
    11     6    12   ar
    12     7    13    1
    13     7    14   ar
    14     8    15   ar
    15    10    16   ar
    16    11    17    2
    17    14    18   ar
    18    16    19    1
    19    19    20    2
    20    19    21    1
    21     8    11    1
    22    12    16   ar
    23    15    18   ar
    24     9    22    1
    25    10    23    1
    26    12    24    1
    27    13    25    1
    28    14    26    1
    29    15    27    1
    30    18    28    1
    31    21    29    1
@<TRIPOS>SUBSTRUCTURE
     1 UNL1        1 TEMP              0 ****  ****    0 ROOT


##########                                Name:                  65
##########                DOCK_Rotatable_Bonds:                  10
##########                         Heavy_Atoms:                  30
##########                    Molecular_Weight:               418.4
##########                       Formal_Charge:         0.000299811
##########                     HBond_Acceptors:                   9
##########                        HBond_Donors:                   7
##########                    Continuous_Score:          -35.949032
##########               Continuous_vdw_energy:          -32.714687
##########                Continuous_es_energy:           -3.234345
##########           Internal_energy_repulsive:           54.495548

@<TRIPOS>MOLECULE
65
 52 55 1 0 0
SMALL
GASTEIGER


@<TRIPOS>ATOM
      1 O          10.1073   10.4630   43.0250 O.2     1  UNL1       -0.2864
      2 C           9.4595   11.4920   43.0894 C.2     1  UNL1        0.2007
      3 C          10.1201   12.8344   43.1016 C.ar    1  UNL1        0.0676
      4 C           7.9754   11.4845   43.2877 C.ar    1  UNL1        0.0676
      5 C          11.5164   12.9611   43.0598 C.ar    1  UNL1        0.1283
      6 C           9.3214   13.9803   43.1699 C.ar    1  UNL1       -0.0227
      7 C           7.2859   10.2831   43.5194 C.ar    1  UNL1        0.1279
      8 C           7.2726   12.6984   43.2520 C.ar    1  UNL1       -0.0231
      9 O          12.3151   11.8631   42.9927 O.3     1  UNL1       -0.5060
     10 C          12.1046   14.2188   42.9972 C.ar    1  UNL1       -0.0141
     11 C           9.9460   15.2208   43.3244 C.ar    1  UNL1       -0.0516
     12 C           7.9168   13.9148   42.7808 C.3     1  UNL1        0.0395
     13 O           7.9572    9.0983   43.6027 O.3     1  UNL1       -0.5060
     14 C           5.9040   10.2870   43.6875 C.ar    1  UNL1       -0.0194
     15 C           5.8825   12.6841   43.4374 C.ar    1  UNL1       -0.0570
     16 C          11.3170   15.3587   43.1108 C.ar    1  UNL1       -0.0184
     17 C           7.3885   14.5081   41.4713 C.3     1  UNL1        0.0983
     18 C           5.2034   11.4874   43.6480 C.ar    1  UNL1       -0.0580
     19 C          11.8957   16.7354   42.7993 C.3     1  UNL1        0.0694
     20 O           6.7822   15.8094   41.7040 O.3     1  UNL1       -0.3649
     21 C           6.4615   13.6564   40.5605 C.3     1  UNL1        0.1104
     22 O          11.5527   17.6894   43.7862 O.3     1  UNL1       -0.3904
     23 C           5.4194   15.8442   42.2042 C.3     1  UNL1        0.1104
     24 O           6.9296   12.3125   40.5178 O.3     1  UNL1       -0.3865
     25 C           4.9575   13.6849   40.9499 C.3     1  UNL1        0.1118
     26 C           4.4589   15.1161   41.2191 C.3     1  UNL1        0.1117
     27 C           5.0537   17.3180   42.4941 C.3     1  UNL1        0.0729
     28 O           4.1826   13.0977   39.9106 O.3     1  UNL1       -0.3865
     29 O           4.3585   15.7810   39.9624 O.3     1  UNL1       -0.3865
     30 O           6.0232   17.9424   43.3425 O.3     1  UNL1       -0.3924
     31 H          13.1766   12.1788   42.6148 H       1  UNL1        0.2922
     32 H          13.1789   14.3013   42.8390 H       1  UNL1        0.0658
     33 H           9.3430   16.1162   43.4371 H       1  UNL1        0.0624
     34 H           7.5872   14.4440   43.6890 H       1  UNL1        0.0424
     35 H           8.9293    9.3165   43.5868 H       1  UNL1        0.2922
     36 H           5.3712    9.3521   43.8469 H       1  UNL1        0.0654
     37 H           5.3109   13.6075   43.3713 H       1  UNL1        0.0621
     38 H           8.2556   14.7231   40.8420 H       1  UNL1        0.0632
     39 H           4.1218   11.4872   43.7607 H       1  UNL1        0.0619
     40 H          11.5544   17.0894   41.8211 H       1  UNL1        0.0607
     41 H          12.9885   16.6641   42.7645 H       1  UNL1        0.0607
     42 H           6.5375   14.0716   39.5508 H       1  UNL1        0.0646
     43 H          10.5876   17.7065   43.8201 H       1  UNL1        0.2098
     44 H           5.3778   15.3204   43.1579 H       1  UNL1        0.0646
     45 H           6.3781   11.8564   39.8623 H       1  UNL1        0.2100
     46 H           4.7542   13.0986   41.8277 H       1  UNL1        0.0647
     47 H           3.4634   15.0703   41.6702 H       1  UNL1        0.0647
     48 H           4.0828   17.3442   42.9973 H       1  UNL1        0.0584
     49 H           4.9693   17.8725   41.5556 H       1  UNL1        0.0584
     50 H           4.3496   13.6609   39.1325 H       1  UNL1        0.2100
     51 H           3.8242   15.2022   39.4003 H       1  UNL1        0.2100
     52 H           5.7520   18.8686   43.4889 H       1  UNL1        0.2095
@<TRIPOS>BOND
     1     1     2    2
     2     2     3    1
     3     2     4    1
     4     3     5   ar
     5     3     6   ar
     6     4     7   ar
     7     4     8   ar
     8     5     9    1
     9     5    10   ar
    10     6    11   ar
    11     6    12    1
    12     7    13    1
    13     7    14   ar
    14     8    15   ar
    15    10    16   ar
    16    12    17    1
    17    14    18   ar
    18    16    19    1
    19    17    20    1
    20    17    21    1
    21    19    22    1
    22    20    23    1
    23    21    24    1
    24    21    25    1
    25    23    26    1
    26    23    27    1
    27    25    28    1
    28    26    29    1
    29    27    30    1
    30     8    12    1
    31    11    16   ar
    32    15    18   ar
    33    25    26    1
    34     9    31    1
    35    10    32    1
    36    11    33    1
    37    12    34    1
    38    13    35    1
    39    14    36    1
    40    15    37    1
    41    17    38    1
    42    18    39    1
    43    19    40    1
    44    19    41    1
    45    21    42    1
    46    22    43    1
    47    23    44    1
    48    24    45    1
    49    25    46    1
    50    26    47    1
    51    27    48    1
    52    27    49    1
    53    28    50    1
    54    29    51    1
    55    30    52    1
@<TRIPOS>SUBSTRUCTURE
     1 UNL1        1 TEMP              0 ****  ****    0 ROOT


##########                                Name:                  65
##########                DOCK_Rotatable_Bonds:                  10
##########                         Heavy_Atoms:                  30
##########                    Molecular_Weight:               418.4
##########                       Formal_Charge:         0.000299811
##########                     HBond_Acceptors:                   9
##########                        HBond_Donors:                   7
##########                    Continuous_Score:          -35.089939
##########               Continuous_vdw_energy:          -31.356573
##########                Continuous_es_energy:           -3.733367
##########           Internal_energy_repulsive:           26.242180

@<TRIPOS>MOLECULE
65
 52 55 1 0 0
SMALL
GASTEIGER


@<TRIPOS>ATOM
      1 O           5.0486   10.9545   44.6272 O.2     1  UNL1       -0.2864
      2 C           5.4751   12.0890   44.7435 C.2     1  UNL1        0.2007
      3 C           6.8267   12.4746   44.2307 C.ar    1  UNL1        0.0676
      4 C           4.7370   13.1392   45.5143 C.ar    1  UNL1        0.0676
      5 C           7.6672   11.5373   43.6122 C.ar    1  UNL1        0.1283
      6 C           7.2580   13.7955   44.3881 C.ar    1  UNL1       -0.0227
      7 C           3.5711   12.8213   46.2298 C.ar    1  UNL1        0.1279
      8 C           5.2287   14.4533   45.5269 C.ar    1  UNL1       -0.0231
      9 O           7.2717   10.2473   43.4467 O.3     1  UNL1       -0.5060
     10 C           8.8870   11.9349   43.0776 C.ar    1  UNL1       -0.0141
     11 C           8.5724   14.1147   44.0369 C.ar    1  UNL1       -0.0516
     12 C           6.2845   14.8589   44.6118 C.3     1  UNL1        0.0395
     13 O           3.1025   11.5405   46.2668 O.3     1  UNL1       -0.5060
     14 C           2.8850   13.8095   46.9306 C.ar    1  UNL1       -0.0194
     15 C           4.5318   15.4324   46.2499 C.ar    1  UNL1       -0.0570
     16 C           9.3381   13.2353   43.2723 C.ar    1  UNL1       -0.0184
     17 C           5.9040   15.8779   43.5335 C.3     1  UNL1        0.0983
     18 C           3.3666   15.1139   46.9416 C.ar    1  UNL1       -0.0580
     19 C          10.5399   13.7638   42.4953 C.3     1  UNL1        0.0694
     20 O           5.2116   15.2273   42.4324 O.3     1  UNL1       -0.3649
     21 C           6.9848   16.8429   42.9723 C.3     1  UNL1        0.1104
     22 O          10.6057   13.2227   41.1898 O.3     1  UNL1       -0.3904
     23 C           6.0150   14.5506   41.4299 C.3     1  UNL1        0.1104
     24 O           7.8166   17.3042   44.0318 O.3     1  UNL1       -0.3865
     25 C           7.8560   16.2539   41.8284 C.3     1  UNL1        0.1118
     26 C           7.0027   15.5489   40.7586 C.3     1  UNL1        0.1117
     27 C           5.0559   13.8333   40.4524 C.3     1  UNL1        0.0729
     28 O           8.6173   17.2927   41.2228 O.3     1  UNL1       -0.3865
     29 O           6.3329   16.5584   40.0078 O.3     1  UNL1       -0.3865
     30 O           5.6079   12.5971   39.9874 O.3     1  UNL1       -0.3924
     31 H           6.6144   10.0718   44.1692 H       1  UNL1        0.2922
     32 H           9.4719   11.2275   42.4916 H       1  UNL1        0.0658
     33 H           8.9447   15.1203   44.2045 H       1  UNL1        0.0624
     34 H           6.8577   15.2767   45.4546 H       1  UNL1        0.0424
     35 H           2.1822   11.5816   46.6464 H       1  UNL1        0.2922
     36 H           1.9714   13.5633   47.4671 H       1  UNL1        0.0654
     37 H           4.8701   16.4665   46.2394 H       1  UNL1        0.0621
     38 H           5.1538   16.5428   43.9688 H       1  UNL1        0.0632
     39 H           2.8197   15.8887   47.4737 H       1  UNL1        0.0619
     40 H          11.4732   13.5448   43.0243 H       1  UNL1        0.0607
     41 H          10.4564   14.8526   42.4053 H       1  UNL1        0.0607
     42 H           6.4567   17.7073   42.5581 H       1  UNL1        0.0646
     43 H          11.5434   13.1829   40.9619 H       1  UNL1        0.2098
     44 H           6.6047   13.7732   41.9131 H       1  UNL1        0.0646
     45 H           8.5120   17.8376   43.6149 H       1  UNL1        0.2100
     46 H           8.5759   15.5428   42.1914 H       1  UNL1        0.0647
     47 H           7.6603   14.9916   40.0851 H       1  UNL1        0.0647
     48 H           4.8853   14.4844   39.5901 H       1  UNL1        0.0584
     49 H           4.0946   13.6507   40.9405 H       1  UNL1        0.0584
     50 H           9.2364   16.8286   40.6296 H       1  UNL1        0.2100
     51 H           5.6585   16.9224   40.5989 H       1  UNL1        0.2100
     52 H           6.2681   12.7962   39.2966 H       1  UNL1        0.2095
@<TRIPOS>BOND
     1     1     2    2
     2     2     3    1
     3     2     4    1
     4     3     5   ar
     5     3     6   ar
     6     4     7   ar
     7     4     8   ar
     8     5     9    1
     9     5    10   ar
    10     6    11   ar
    11     6    12    1
    12     7    13    1
    13     7    14   ar
    14     8    15   ar
    15    10    16   ar
    16    12    17    1
    17    14    18   ar
    18    16    19    1
    19    17    20    1
    20    17    21    1
    21    19    22    1
    22    20    23    1
    23    21    24    1
    24    21    25    1
    25    23    26    1
    26    23    27    1
    27    25    28    1
    28    26    29    1
    29    27    30    1
    30     8    12    1
    31    11    16   ar
    32    15    18   ar
    33    25    26    1
    34     9    31    1
    35    10    32    1
    36    11    33    1
    37    12    34    1
    38    13    35    1
    39    14    36    1
    40    15    37    1
    41    17    38    1
    42    18    39    1
    43    19    40    1
    44    19    41    1
    45    21    42    1
    46    22    43    1
    47    23    44    1
    48    24    45    1
    49    25    46    1
    50    26    47    1
    51    27    48    1
    52    27    49    1
    53    28    50    1
    54    29    51    1
    55    30    52    1
@<TRIPOS>SUBSTRUCTURE
     1 UNL1        1 TEMP              0 ****  ****    0 ROOT


##########                                Name:                  65
##########                DOCK_Rotatable_Bonds:                  10
##########                         Heavy_Atoms:                  30
##########                    Molecular_Weight:               418.4
##########                       Formal_Charge:         0.000299811
##########                     HBond_Acceptors:                   9
##########                        HBond_Donors:                   7
##########                    Continuous_Score:          -36.962151
##########               Continuous_vdw_energy:          -32.412365
##########                Continuous_es_energy:           -4.549787
##########           Internal_energy_repulsive:           55.166241

@<TRIPOS>MOLECULE
65
 52 55 1 0 0
SMALL
GASTEIGER


@<TRIPOS>ATOM
      1 O           9.2774   11.5290   42.6469 O.2     1  UNL1       -0.2864
      2 C           9.8224   12.5375   43.0574 C.2     1  UNL1        0.2007
      3 C          11.2390   12.5223   43.5385 C.ar    1  UNL1        0.0676
      4 C           9.0810   13.8270   43.2279 C.ar    1  UNL1        0.0676
      5 C          11.9914   11.3385   43.5554 C.ar    1  UNL1        0.1283
      6 C          11.8120   13.7146   43.9918 C.ar    1  UNL1       -0.0227
      7 C           7.6930   13.8920   43.0241 C.ar    1  UNL1        0.1279
      8 C           9.7867   14.9788   43.6077 C.ar    1  UNL1       -0.0231
      9 O          11.4581   10.1664   43.1200 O.3     1  UNL1       -0.5060
     10 C          13.3278   11.3626   43.9364 C.ar    1  UNL1       -0.0141
     11 C          13.0828   13.6665   44.5708 C.ar    1  UNL1       -0.0516
     12 C          11.2413   14.9964   43.5917 C.3     1  UNL1        0.0395
     13 O           6.9825   12.7737   42.6985 O.3     1  UNL1       -0.5060
     14 C           7.0167   15.1001   43.1710 C.ar    1  UNL1       -0.0194
     15 C           9.0862   16.1836   43.7647 C.ar    1  UNL1       -0.0570
     16 C          13.8865   12.5358   44.4302 C.ar    1  UNL1       -0.0184
     17 C          11.9051   15.9172   42.5635 C.3     1  UNL1        0.0983
     18 C           7.7133   16.2446   43.5427 C.ar    1  UNL1       -0.0580
     19 C          15.3956   12.6568   44.6187 C.3     1  UNL1        0.0694
     20 O          12.6435   16.9806   43.2262 O.3     1  UNL1       -0.3649
     21 C          11.0575   16.5142   41.4060 C.3     1  UNL1        0.1104
     22 O          15.7311   13.6227   45.5965 O.3     1  UNL1       -0.3904
     23 C          11.8980   18.1349   43.6954 C.3     1  UNL1        0.1104
     24 O          10.1615   15.5274   40.9057 O.3     1  UNL1       -0.3865
     25 C          10.2772   17.8083   41.7677 C.3     1  UNL1        0.1118
     26 C          11.1615   18.8258   42.5108 C.3     1  UNL1        0.1117
     27 C          12.8718   19.0491   44.4737 C.3     1  UNL1        0.0729
     28 O           9.7594   18.4023   40.5827 O.3     1  UNL1       -0.3865
     29 O          12.0628   19.3881   41.5606 O.3     1  UNL1       -0.3865
     30 O          13.5873   18.3207   45.4772 O.3     1  UNL1       -0.3924
     31 H          12.1136    9.4633   43.3667 H       1  UNL1        0.2922
     32 H          13.9334   10.4643   43.8259 H       1  UNL1        0.0658
     33 H          13.5217   14.5706   44.9808 H       1  UNL1        0.0624
     34 H          11.2504   15.3810   44.6239 H       1  UNL1        0.0424
     35 H           6.0188   13.0250   42.7322 H       1  UNL1        0.2922
     36 H           5.9449   15.1504   42.9928 H       1  UNL1        0.0654
     37 H           9.6183   17.0986   44.0167 H       1  UNL1        0.0621
     38 H          12.6744   15.3308   42.0550 H       1  UNL1        0.0632
     39 H           7.1873   17.1915   43.6388 H       1  UNL1        0.0619
     40 H          15.8872   12.9130   43.6747 H       1  UNL1        0.0607
     41 H          15.7929   11.6905   44.9490 H       1  UNL1        0.0607
     42 H          11.7534   16.7754   40.6028 H       1  UNL1        0.0646
     43 H          15.2311   14.4178   45.3719 H       1  UNL1        0.2098
     44 H          11.1445   17.8049   44.4088 H       1  UNL1        0.0646
     45 H           9.5509   15.3253   41.6324 H       1  UNL1        0.2100
     46 H           9.4218   17.6069   42.3870 H       1  UNL1        0.0647
     47 H          10.5307   19.6257   42.9094 H       1  UNL1        0.0647
     48 H          12.2937   19.8386   44.9626 H       1  UNL1        0.0584
     49 H          13.5766   19.5178   43.7815 H       1  UNL1        0.0584
     50 H           9.2583   19.1777   40.8963 H       1  UNL1        0.2100
     51 H          11.5086   19.7593   40.8596 H       1  UNL1        0.2100
     52 H          14.2261   18.9262   45.8993 H       1  UNL1        0.2095
@<TRIPOS>BOND
     1     1     2    2
     2     2     3    1
     3     2     4    1
     4     3     5   ar
     5     3     6   ar
     6     4     7   ar
     7     4     8   ar
     8     5     9    1
     9     5    10   ar
    10     6    11   ar
    11     6    12    1
    12     7    13    1
    13     7    14   ar
    14     8    15   ar
    15    10    16   ar
    16    12    17    1
    17    14    18   ar
    18    16    19    1
    19    17    20    1
    20    17    21    1
    21    19    22    1
    22    20    23    1
    23    21    24    1
    24    21    25    1
    25    23    26    1
    26    23    27    1
    27    25    28    1
    28    26    29    1
    29    27    30    1
    30     8    12    1
    31    11    16   ar
    32    15    18   ar
    33    25    26    1
    34     9    31    1
    35    10    32    1
    36    11    33    1
    37    12    34    1
    38    13    35    1
    39    14    36    1
    40    15    37    1
    41    17    38    1
    42    18    39    1
    43    19    40    1
    44    19    41    1
    45    21    42    1
    46    22    43    1
    47    23    44    1
    48    24    45    1
    49    25    46    1
    50    26    47    1
    51    27    48    1
    52    27    49    1
    53    28    50    1
    54    29    51    1
    55    30    52    1
@<TRIPOS>SUBSTRUCTURE
     1 UNL1        1 TEMP              0 ****  ****    0 ROOT


##########                                Name:                  69
##########                DOCK_Rotatable_Bonds:                   3
##########                         Heavy_Atoms:                  20
##########                    Molecular_Weight:             270.241
##########                       Formal_Charge:         9.99756e-05
##########                     HBond_Acceptors:                   5
##########                        HBond_Donors:                   3
##########                    Continuous_Score:          -30.501841
##########               Continuous_vdw_energy:          -28.404470
##########                Continuous_es_energy:           -2.097370
##########           Internal_energy_repulsive:           12.801698

@<TRIPOS>MOLECULE
69
 30 32 1 0 0
SMALL
GASTEIGER


@<TRIPOS>ATOM
      1 O          22.4325   10.1969   42.9996 O.2     1  UNL1       -0.2864
      2 C          22.7684   10.6948   41.9405 C.2     1  UNL1        0.2015
      3 C          23.1658   12.1430   41.8744 C.ar    1  UNL1        0.0748
      4 C          22.7925    9.8719   40.6815 C.ar    1  UNL1        0.0745
      5 C          23.1553   12.9423   43.0324 C.ar    1  UNL1        0.1318
      6 C          23.5515   12.7110   40.6536 C.ar    1  UNL1        0.0400
      7 C          22.4278    8.5142   40.7058 C.ar    1  UNL1        0.1286
      8 C          23.1798   10.4524   39.4679 C.ar    1  UNL1        0.0368
      9 O          22.7872   12.4359   44.2466 O.3     1  UNL1       -0.5059
     10 C          23.5243   14.2821   42.9678 C.ar    1  UNL1        0.0221
     11 C          23.5767   11.8959   39.3966 C.2     1  UNL1        0.1949
     12 C          23.9200   14.0599   40.6027 C.ar    1  UNL1       -0.0084
     13 O          22.0438    7.9068   41.8671 O.3     1  UNL1       -0.5060
     14 C          22.4507    7.7544   39.5390 C.ar    1  UNL1       -0.0165
     15 C          23.1982    9.6768   38.3028 C.ar    1  UNL1       -0.0471
     16 C          23.9067   14.8410   41.7536 C.ar    1  UNL1        0.1210
     17 O          23.9125   12.3953   38.3398 O.2     1  UNL1       -0.2866
     18 C          22.8361    8.3318   38.3315 C.ar    1  UNL1       -0.0463
     19 O          24.2681   16.1514   41.6919 O.3     1  UNL1       -0.5066
     20 C          22.8642    7.5112   37.0536 C.3     1  UNL1       -0.0396
     21 H          22.6466   11.4572   44.1271 H       1  UNL1        0.2922
     22 H          23.5124   14.8893   43.8703 H       1  UNL1        0.0691
     23 H          24.2217   14.5130   39.6606 H       1  UNL1        0.0661
     24 H          21.8051    6.9648   41.6400 H       1  UNL1        0.2922
     25 H          22.1656    6.7050   39.5759 H       1  UNL1        0.0657
     26 H          23.4982   10.1216   37.3561 H       1  UNL1        0.0627
     27 H          24.1954   16.5438   42.5806 H       1  UNL1        0.2921
     28 H          22.5550    6.4796   37.2368 H       1  UNL1        0.0278
     29 H          23.8727    7.4948   36.6342 H       1  UNL1        0.0278
     30 H          22.1895    7.9417   36.3103 H       1  UNL1        0.0278
@<TRIPOS>BOND
     1     1     2    2
     2     2     3    1
     3     2     4    1
     4     3     5   ar
     5     3     6   ar
     6     4     7   ar
     7     4     8   ar
     8     5     9    1
     9     5    10   ar
    10     6    11    1
    11     6    12   ar
    12     7    13    1
    13     7    14   ar
    14     8    15   ar
    15    10    16   ar
    16    11    17    2
    17    14    18   ar
    18    16    19    1
    19    18    20    1
    20     8    11    1
    21    12    16   ar
    22    15    18   ar
    23     9    21    1
    24    10    22    1
    25    12    23    1
    26    13    24    1
    27    14    25    1
    28    15    26    1
    29    19    27    1
    30    20    28    1
    31    20    29    1
    32    20    30    1
@<TRIPOS>SUBSTRUCTURE
     1 UNL1        1 TEMP              0 ****  ****    0 ROOT


##########                                Name:                  69
##########                DOCK_Rotatable_Bonds:                   3
##########                         Heavy_Atoms:                  20
##########                    Molecular_Weight:             270.241
##########                       Formal_Charge:         9.99756e-05
##########                     HBond_Acceptors:                   5
##########                        HBond_Donors:                   3
##########                    Continuous_Score:          -31.606806
##########               Continuous_vdw_energy:          -29.711393
##########                Continuous_es_energy:           -1.895412
##########           Internal_energy_repulsive:           12.802418

@<TRIPOS>MOLECULE
69
 30 32 1 0 0
SMALL
GASTEIGER


@<TRIPOS>ATOM
      1 O          22.3051    9.9191   42.7363 O.2     1  UNL1       -0.2864
      2 C          22.6890   10.3492   41.6639 C.2     1  UNL1        0.2015
      3 C          22.7097    9.4596   40.4525 C.ar    1  UNL1        0.0748
      4 C          23.1485   11.7754   41.5316 C.ar    1  UNL1        0.0745
      5 C          22.2866    8.1204   40.5397 C.ar    1  UNL1        0.1318
      6 C          23.1523    9.9592   39.2210 C.ar    1  UNL1        0.0400
      7 C          23.1423   12.6362   42.6432 C.ar    1  UNL1        0.1286
      8 C          23.5886   12.2617   40.2948 C.ar    1  UNL1        0.0368
      9 O          21.8464    7.5856   41.7172 O.3     1  UNL1       -0.5059
     10 C          22.3064    7.3001   39.4162 C.ar    1  UNL1        0.0221
     11 C          23.6114   11.3789   39.0840 C.2     1  UNL1        0.1949
     12 C          23.1671    9.1231   38.0991 C.ar    1  UNL1       -0.0084
     13 O          22.7208   12.2046   43.8684 O.3     1  UNL1       -0.5060
     14 C          23.5682   13.9563   42.5183 C.ar    1  UNL1       -0.0165
     15 C          24.0140   13.5907   40.1838 C.ar    1  UNL1       -0.0471
     16 C          22.7463    7.8009   38.1963 C.ar    1  UNL1        0.1210
     17 O          23.9945   11.8064   38.0118 O.2     1  UNL1       -0.2866
     18 C          24.0063   14.4402   41.2880 C.ar    1  UNL1       -0.0463
     19 O          22.7643    6.9977   37.0981 O.3     1  UNL1       -0.5066
     20 C          24.4726   15.8784   41.1419 C.3     1  UNL1       -0.0396
     21 H          21.5747    6.6459   41.5302 H       1  UNL1        0.2922
     22 H          21.9764    6.2666   39.4968 H       1  UNL1        0.0691
     23 H          23.5085    9.4991   37.1368 H       1  UNL1        0.0661
     24 H          22.4765   11.2420   43.7720 H       1  UNL1        0.2922
     25 H          23.5568   14.6088   43.3889 H       1  UNL1        0.0657
     26 H          24.3573   13.9752   39.2255 H       1  UNL1        0.0627
     27 H          22.4642    6.1060   37.3509 H       1  UNL1        0.2921
     28 H          24.4084   16.4154   42.0910 H       1  UNL1        0.0278
     29 H          23.8563   16.4057   40.4102 H       1  UNL1        0.0278
     30 H          25.5107   15.9091   40.8032 H       1  UNL1        0.0278
@<TRIPOS>BOND
     1     1     2    2
     2     2     3    1
     3     2     4    1
     4     3     5   ar
     5     3     6   ar
     6     4     7   ar
     7     4     8   ar
     8     5     9    1
     9     5    10   ar
    10     6    11    1
    11     6    12   ar
    12     7    13    1
    13     7    14   ar
    14     8    15   ar
    15    10    16   ar
    16    11    17    2
    17    14    18   ar
    18    16    19    1
    19    18    20    1
    20     8    11    1
    21    12    16   ar
    22    15    18   ar
    23     9    21    1
    24    10    22    1
    25    12    23    1
    26    13    24    1
    27    14    25    1
    28    15    26    1
    29    19    27    1
    30    20    28    1
    31    20    29    1
    32    20    30    1
@<TRIPOS>SUBSTRUCTURE
     1 UNL1        1 TEMP              0 ****  ****    0 ROOT


##########                                Name:                  69
##########                DOCK_Rotatable_Bonds:                   3
##########                         Heavy_Atoms:                  20
##########                    Molecular_Weight:             270.241
##########                       Formal_Charge:         9.99756e-05
##########                     HBond_Acceptors:                   5
##########                        HBond_Donors:                   3
##########                    Continuous_Score:          -31.000732
##########               Continuous_vdw_energy:          -28.470634
##########                Continuous_es_energy:           -2.530098
##########           Internal_energy_repulsive:           12.800084

@<TRIPOS>MOLECULE
69
 30 32 1 0 0
SMALL
GASTEIGER


@<TRIPOS>ATOM
      1 O          23.9672   11.8370   38.9888 O.2     1  UNL1       -0.2864
      2 C          23.6036   10.7010   38.7448 C.2     1  UNL1        0.2015
      3 C          22.9700    9.8598   39.8174 C.ar    1  UNL1        0.0748
      4 C          23.7810   10.1196   37.3689 C.ar    1  UNL1        0.0745
      5 C          22.7882   10.3715   41.1155 C.ar    1  UNL1        0.1318
      6 C          22.5534    8.5534   39.5317 C.ar    1  UNL1        0.0400
      7 C          24.3690   10.8775   36.3411 C.ar    1  UNL1        0.1286
      8 C          23.3602    8.8123   37.0971 C.ar    1  UNL1        0.0368
      9 O          23.1775   11.6390   41.4446 O.3     1  UNL1       -0.5059
     10 C          22.2009    9.5905   42.1055 C.ar    1  UNL1        0.0221
     11 C          22.7281    7.9693   38.1629 C.2     1  UNL1        0.1949
     12 C          21.9643    7.7786   40.5370 C.ar    1  UNL1       -0.0084
     13 O          24.7935   12.1567   36.5611 O.3     1  UNL1       -0.5060
     14 C          24.5321   10.3371   35.0680 C.ar    1  UNL1       -0.0165
     15 C          23.5304    8.2818   35.8130 C.ar    1  UNL1       -0.0471
     16 C          21.7887    8.2945   41.8167 C.ar    1  UNL1        0.1210
     17 O          22.3642    6.8343   37.9215 O.2     1  UNL1       -0.2866
     18 C          24.1138    9.0365   34.7974 C.ar    1  UNL1       -0.0463
     19 O          21.2136    7.5319   42.7859 O.3     1  UNL1       -0.5066
     20 C          24.2875    8.4383   33.4121 C.3     1  UNL1       -0.0396
     21 H          23.0853   12.1974   40.6250 H       1  UNL1        0.2922
     22 H          22.0656    9.9978   43.1051 H       1  UNL1        0.0691
     23 H          21.6362    6.7624   40.3278 H       1  UNL1        0.0661
     24 H          24.5702   12.3810   37.5074 H       1  UNL1        0.2922
     25 H          24.9892   10.9377   34.2841 H       1  UNL1        0.0657
     26 H          23.2057    7.2664   35.5948 H       1  UNL1        0.0627
     27 H          21.1363    6.6152   42.4655 H       1  UNL1        0.2921
     28 H          24.7579    9.1487   32.7286 H       1  UNL1        0.0278
     29 H          23.3180    8.1561   32.9953 H       1  UNL1        0.0278
     30 H          24.9147    7.5452   33.4593 H       1  UNL1        0.0278
@<TRIPOS>BOND
     1     1     2    2
     2     2     3    1
     3     2     4    1
     4     3     5   ar
     5     3     6   ar
     6     4     7   ar
     7     4     8   ar
     8     5     9    1
     9     5    10   ar
    10     6    11    1
    11     6    12   ar
    12     7    13    1
    13     7    14   ar
    14     8    15   ar
    15    10    16   ar
    16    11    17    2
    17    14    18   ar
    18    16    19    1
    19    18    20    1
    20     8    11    1
    21    12    16   ar
    22    15    18   ar
    23     9    21    1
    24    10    22    1
    25    12    23    1
    26    13    24    1
    27    14    25    1
    28    15    26    1
    29    19    27    1
    30    20    28    1
    31    20    29    1
    32    20    30    1
@<TRIPOS>SUBSTRUCTURE
     1 UNL1        1 TEMP              0 ****  ****    0 ROOT


##########                                Name:                  74
##########                DOCK_Rotatable_Bonds:                   2
##########                         Heavy_Atoms:                  18
##########                    Molecular_Weight:             238.243
##########                       Formal_Charge:         0.000200026
##########                     HBond_Acceptors:                   3
##########                        HBond_Donors:                   1
##########                    Continuous_Score:          -28.545223
##########               Continuous_vdw_energy:          -28.227907
##########                Continuous_es_energy:           -0.317315
##########           Internal_energy_repulsive:            5.255424

@<TRIPOS>MOLECULE
74
 28 30 1 0 0
SMALL
GASTEIGER


@<TRIPOS>ATOM
      1 O          24.0944   11.6157   38.2235 O.2     1  UNL1       -0.2870
      2 C          23.6600   11.5030   39.3535 C.ar    1  UNL1        0.1932
      3 C          23.0654   10.2751   39.8905 C.ar    1  UNL1        0.0674
      4 C          23.6364   12.6013   40.3489 C.ar    1  UNL1        0.0287
      5 C          22.5982   10.3701   41.1818 C.ar    1  UNL1        0.1395
      6 C          22.8996    9.0246   39.1915 C.ar    1  UNL1       -0.0058
      7 C          23.2250   12.5155   41.3984 C.ar    1  UNL1        0.1392
      8 O          22.7250   11.5961   41.8182 O.2     1  UNL1       -0.4546
      9 C          21.9697    9.2365   41.8123 C.ar    1  UNL1       -0.0152
     10 C          22.2828    7.9359   39.8032 C.ar    1  UNL1        0.1178
     11 C          23.2766   13.6389   42.4141 C.ar    1  UNL1        0.0174
     12 C          21.8208    8.0411   41.1133 C.ar    1  UNL1       -0.0167
     13 O          22.1273    6.7645   39.1243 O.3     1  UNL1       -0.5067
     14 C          23.9827   14.8319   42.1484 C.ar    1  UNL1       -0.0511
     15 C          22.6406   13.5131   43.6682 C.ar    1  UNL1       -0.0511
     16 C          24.0665   15.8388   43.1092 C.ar    1  UNL1       -0.0611
     17 C          22.7302   14.5274   44.6190 C.ar    1  UNL1       -0.0611
     18 C          23.4466   15.6866   44.3449 C.ar    1  UNL1       -0.0617
     19 H          23.9898   13.5513   39.9631 H       1  UNL1        0.0693
     20 H          23.2622    8.9562   38.1685 H       1  UNL1        0.0662
     21 H          21.6119    9.3145   42.8359 H       1  UNL1        0.0656
     22 H          21.3433    7.1894   41.5919 H       1  UNL1        0.0655
     23 H          22.4913    6.8459   38.2234 H       1  UNL1        0.2921
     24 H          24.4901   14.9778   41.1977 H       1  UNL1        0.0625
     25 H          22.0638   12.6267   43.9186 H       1  UNL1        0.0625
     26 H          24.6259   16.7459   42.8943 H       1  UNL1        0.0618
     27 H          22.2395   14.4098   45.5823 H       1  UNL1        0.0618
     28 H          23.5202   16.4717   45.0936 H       1  UNL1        0.0618
@<TRIPOS>BOND
     1     1     2    2
     2     2     3   ar
     3     2     4   ar
     4     3     5   ar
     5     3     6   ar
     6     4     7   ar
     7     5     8   ar
     8     5     9   ar
     9     6    10   ar
    10     7    11    1
    11     9    12   ar
    12    10    13    1
    13    11    14   ar
    14    11    15   ar
    15    14    16   ar
    16    15    17   ar
    17    16    18   ar
    18     7     8   ar
    19    10    12   ar
    20    17    18   ar
    21     4    19    1
    22     6    20    1
    23     9    21    1
    24    12    22    1
    25    13    23    1
    26    14    24    1
    27    15    25    1
    28    16    26    1
    29    17    27    1
    30    18    28    1
@<TRIPOS>SUBSTRUCTURE
     1 UNL1        1 TEMP              0 ****  ****    0 ROOT


##########                                Name:                  74
##########                DOCK_Rotatable_Bonds:                   2
##########                         Heavy_Atoms:                  18
##########                    Molecular_Weight:             238.243
##########                       Formal_Charge:         0.000200026
##########                     HBond_Acceptors:                   3
##########                        HBond_Donors:                   1
##########                    Continuous_Score:          -28.772446
##########               Continuous_vdw_energy:          -28.260307
##########                Continuous_es_energy:           -0.512139
##########           Internal_energy_repulsive:            5.723917

@<TRIPOS>MOLECULE
74
 28 30 1 0 0
SMALL
GASTEIGER


@<TRIPOS>ATOM
      1 O          24.1902   11.5721   38.2177 O.2     1  UNL1       -0.2870
      2 C          23.7155   11.4485   39.3301 C.ar    1  UNL1        0.1932
      3 C          23.0899   10.2201   39.8289 C.ar    1  UNL1        0.0674
      4 C          23.6686   12.5335   40.3395 C.ar    1  UNL1        0.0287
      5 C          22.5791   10.3024   41.1044 C.ar    1  UNL1        0.1395
      6 C          22.9356    8.9810   39.1072 C.ar    1  UNL1       -0.0058
      7 C          23.2199   12.4376   41.3728 C.ar    1  UNL1        0.1392
      8 O          22.6962   11.5181   41.7619 O.2     1  UNL1       -0.4546
      9 C          21.9172    9.1671   41.6967 C.ar    1  UNL1       -0.0152
     10 C          22.2867    7.8908   39.6817 C.ar    1  UNL1        0.1178
     11 C          23.2478   13.5464   42.4054 C.ar    1  UNL1        0.0174
     12 C          21.7805    7.9830   40.9763 C.ar    1  UNL1       -0.0167
     13 O          22.1428    6.7305   38.9813 O.3     1  UNL1       -0.5067
     14 C          22.6410   13.3828   43.6692 C.ar    1  UNL1       -0.0511
     15 C          23.8599   14.7866   42.1220 C.ar    1  UNL1       -0.0511
     16 C          22.6282   14.4268   44.5934 C.ar    1  UNL1       -0.0611
     17 C          23.8420   15.8213   43.0548 C.ar    1  UNL1       -0.0611
     18 C          23.2224   15.6463   44.2867 C.ar    1  UNL1       -0.0617
     19 H          24.0450   13.4847   39.9795 H       1  UNL1        0.0693
     20 H          23.3331    8.9226   38.0965 H       1  UNL1        0.0662
     21 H          21.5247    9.2350   42.7083 H       1  UNL1        0.0656
     22 H          21.2778    7.1302   41.4260 H       1  UNL1        0.0655
     23 H          22.5712    6.8079   38.1089 H       1  UNL1        0.2921
     24 H          22.1558   12.4470   43.9364 H       1  UNL1        0.0625
     25 H          24.3623   14.9610   41.1742 H       1  UNL1        0.0625
     26 H          22.1446   14.2896   45.5574 H       1  UNL1        0.0618
     27 H          24.3127   16.7720   42.8161 H       1  UNL1        0.0618
     28 H          23.2042   16.4600   45.0080 H       1  UNL1        0.0618
@<TRIPOS>BOND
     1     1     2    2
     2     2     3   ar
     3     2     4   ar
     4     3     5   ar
     5     3     6   ar
     6     4     7   ar
     7     5     8   ar
     8     5     9   ar
     9     6    10   ar
    10     7    11    1
    11     9    12   ar
    12    10    13    1
    13    11    14   ar
    14    11    15   ar
    15    14    16   ar
    16    15    17   ar
    17    16    18   ar
    18     7     8   ar
    19    10    12   ar
    20    17    18   ar
    21     4    19    1
    22     6    20    1
    23     9    21    1
    24    12    22    1
    25    13    23    1
    26    14    24    1
    27    15    25    1
    28    16    26    1
    29    17    27    1
    30    18    28    1
@<TRIPOS>SUBSTRUCTURE
     1 UNL1        1 TEMP              0 ****  ****    0 ROOT


##########                                Name:                  74
##########                DOCK_Rotatable_Bonds:                   2
##########                         Heavy_Atoms:                  18
##########                    Molecular_Weight:             238.243
##########                       Formal_Charge:         0.000200026
##########                     HBond_Acceptors:                   3
##########                        HBond_Donors:                   1
##########                    Continuous_Score:          -28.218138
##########               Continuous_vdw_energy:          -27.806787
##########                Continuous_es_energy:           -0.411350
##########           Internal_energy_repulsive:            5.713411

@<TRIPOS>MOLECULE
74
 28 30 1 0 0
SMALL
GASTEIGER


@<TRIPOS>ATOM
      1 O          24.1096   11.3779   38.2208 O.2     1  UNL1       -0.2870
      2 C          23.6602   11.3110   39.3484 C.ar    1  UNL1        0.1932
      3 C          23.0519   10.1078   39.9246 C.ar    1  UNL1        0.0674
      4 C          23.6300   12.4470   40.3005 C.ar    1  UNL1        0.0287
      5 C          22.5690   10.2549   41.2052 C.ar    1  UNL1        0.1395
      6 C          22.8881    8.8320   39.2723 C.ar    1  UNL1       -0.0058
      7 C          23.2047   12.4038   41.3471 C.ar    1  UNL1        0.1392
      8 O          22.6944   11.5038   41.7955 O.2     1  UNL1       -0.4546
      9 C          21.9261    9.1497   41.8708 C.ar    1  UNL1       -0.0152
     10 C          22.2575    7.7710   39.9175 C.ar    1  UNL1        0.1178
     11 C          23.2497   13.5654   42.3194 C.ar    1  UNL1        0.0174
     12 C          21.7794    7.9290   41.2164 C.ar    1  UNL1       -0.0167
     13 O          22.1041    6.5751   39.2822 O.3     1  UNL1       -0.5067
     14 C          23.8613   14.7882   41.9686 C.ar    1  UNL1       -0.0511
     15 C          22.7032   13.4480   43.6157 C.ar    1  UNL1       -0.0511
     16 C          23.9421   15.8334   42.8878 C.ar    1  UNL1       -0.0611
     17 C          22.7888   14.5005   44.5245 C.ar    1  UNL1       -0.0611
     18 C          23.4121   15.6901   44.1658 C.ar    1  UNL1       -0.0617
     19 H          23.9937   13.3797   39.8829 H       1  UNL1        0.0693
     20 H          23.2634    8.7224   38.2575 H       1  UNL1        0.0662
     21 H          21.5557    9.2690   42.8858 H       1  UNL1        0.0656
     22 H          21.2911    7.0989   41.7212 H       1  UNL1        0.0655
     23 H          21.6824    5.9284   39.8778 H       1  UNL1        0.2921
     24 H          24.2976   14.9291   40.9824 H       1  UNL1        0.0625
     25 H          22.2001   12.5384   43.9326 H       1  UNL1        0.0625
     26 H          24.4287   16.7642   42.6069 H       1  UNL1        0.0618
     27 H          22.3680   14.3894   45.5211 H       1  UNL1        0.0618
     28 H          23.4834   16.5055   44.8816 H       1  UNL1        0.0618
@<TRIPOS>BOND
     1     1     2    2
     2     2     3   ar
     3     2     4   ar
     4     3     5   ar
     5     3     6   ar
     6     4     7   ar
     7     5     8   ar
     8     5     9   ar
     9     6    10   ar
    10     7    11    1
    11     9    12   ar
    12    10    13    1
    13    11    14   ar
    14    11    15   ar
    15    14    16   ar
    16    15    17   ar
    17    16    18   ar
    18     7     8   ar
    19    10    12   ar
    20    17    18   ar
    21     4    19    1
    22     6    20    1
    23     9    21    1
    24    12    22    1
    25    13    23    1
    26    14    24    1
    27    15    25    1
    28    16    26    1
    29    17    27    1
    30    18    28    1
@<TRIPOS>SUBSTRUCTURE
     1 UNL1        1 TEMP              0 ****  ****    0 ROOT


##########                                Name:                  76
##########                DOCK_Rotatable_Bonds:                   4
##########                         Heavy_Atoms:                  20
##########                    Molecular_Weight:             271.359
##########                       Formal_Charge:         0.000500061
##########                     HBond_Acceptors:                   3
##########                        HBond_Donors:                   0
##########                    Continuous_Score:          -33.032017
##########               Continuous_vdw_energy:          -31.765915
##########                Continuous_es_energy:           -1.266101
##########           Internal_energy_repulsive:            7.001014

@<TRIPOS>MOLECULE
76
 41 43 1 0 0
SMALL
GASTEIGER


@<TRIPOS>ATOM
      1 O           8.3373   11.0363   43.5083 O.2     1  UNL1       -0.2450
      2 C           8.2519   12.0062   42.7788 C.2     1  UNL1        0.3395
      3 O           9.3118   12.5443   42.1187 O.3     1  UNL1       -0.4578
      4 C           6.9434   12.6486   42.4762 C.2     1  UNL1        0.0591
      5 C          10.6434   12.3213   42.6615 C.3     1  UNL1        0.1063
      6 C           6.0329   13.0076   43.5833 C.ar    1  UNL1       -0.0116
      7 C           6.5862   12.8829   41.2016 C.2     1  UNL1       -0.0841
      8 C          10.8728   13.1762   43.9378 C.3     1  UNL1        0.0000
      9 C          11.7397   12.6092   41.6022 C.3     1  UNL1        0.0000
     10 C           6.5576   13.5308   44.7669 C.ar    1  UNL1       -0.0538
     11 C           4.6614   12.7672   43.4841 C.ar    1  UNL1       -0.0538
     12 C          12.3736   13.1653   44.3750 C.3     1  UNL1        0.0138
     13 C          13.1594   12.6818   42.2573 C.3     1  UNL1        0.0138
     14 C           5.7188   13.8111   45.8431 C.ar    1  UNL1       -0.0612
     15 C           3.8216   13.0503   44.5602 C.ar    1  UNL1       -0.0612
     16 N          13.0915   12.1039   43.6240 N.3     1  UNL1       -0.2992
     17 C          13.0920   14.4598   43.9307 C.3     1  UNL1       -0.0358
     18 C          13.5861   14.1490   42.5052 C.3     1  UNL1       -0.0358
     19 C           4.3505   13.5696   45.7407 C.ar    1  UNL1       -0.0617
     20 C          14.3956   11.7087   44.2055 C.3     1  UNL1       -0.0122
     21 H          10.7385   11.2645   42.9291 H       1  UNL1        0.0735
     22 H           7.2309   12.6264   40.3659 H       1  UNL1        0.0543
     23 H           5.6314   13.3464   40.9627 H       1  UNL1        0.0543
     24 H          10.2640   12.7708   44.7481 H       1  UNL1        0.0316
     25 H          10.5230   14.1975   43.7657 H       1  UNL1        0.0316
     26 H          11.5079   13.5260   41.0558 H       1  UNL1        0.0316
     27 H          11.7283   11.7976   40.8716 H       1  UNL1        0.0316
     28 H           7.6271   13.7084   44.8550 H       1  UNL1        0.0624
     29 H           4.2466   12.3523   42.5685 H       1  UNL1        0.0624
     30 H          12.4435   13.0251   45.4574 H       1  UNL1        0.0464
     31 H          13.8857   12.1620   41.6265 H       1  UNL1        0.0464
     32 H           6.1339   14.2111   46.7650 H       1  UNL1        0.0618
     33 H           2.7544   12.8592   44.4812 H       1  UNL1        0.0618
     34 H          13.9488   14.6502   44.5820 H       1  UNL1        0.0281
     35 H          12.4449   15.3393   43.9613 H       1  UNL1        0.0281
     36 H          13.1683   14.8405   41.7701 H       1  UNL1        0.0281
     37 H          14.6747   14.2335   42.4665 H       1  UNL1        0.0281
     38 H           3.6964   13.7833   46.5827 H       1  UNL1        0.0618
     39 H          14.2398   11.3086   45.2108 H       1  UNL1        0.0391
     40 H          15.0808   12.5588   44.2642 H       1  UNL1        0.0391
     41 H          14.8498   10.9292   43.5880 H       1  UNL1        0.0391
@<TRIPOS>BOND
     1     1     2    2
     2     2     3    1
     3     2     4    1
     4     3     5    1
     5     4     6    1
     6     4     7    2
     7     5     8    1
     8     5     9    1
     9     6    10   ar
    10     6    11   ar
    11     8    12    1
    12     9    13    1
    13    10    14   ar
    14    11    15   ar
    15    12    16    1
    16    12    17    1
    17    13    18    1
    18    14    19   ar
    19    16    20    1
    20    13    16    1
    21    15    19   ar
    22    17    18    1
    23     5    21    1
    24     7    22    1
    25     7    23    1
    26     8    24    1
    27     8    25    1
    28     9    26    1
    29     9    27    1
    30    10    28    1
    31    11    29    1
    32    12    30    1
    33    13    31    1
    34    14    32    1
    35    15    33    1
    36    17    34    1
    37    17    35    1
    38    18    36    1
    39    18    37    1
    40    19    38    1
    41    20    39    1
    42    20    40    1
    43    20    41    1
@<TRIPOS>SUBSTRUCTURE
     1 UNL1        1 TEMP              0 ****  ****    0 ROOT


##########                                Name:                  76
##########                DOCK_Rotatable_Bonds:                   4
##########                         Heavy_Atoms:                  20
##########                    Molecular_Weight:             271.359
##########                       Formal_Charge:         0.000500061
##########                     HBond_Acceptors:                   3
##########                        HBond_Donors:                   0
##########                    Continuous_Score:          -29.932787
##########               Continuous_vdw_energy:          -28.964647
##########                Continuous_es_energy:           -0.968140
##########           Internal_energy_repulsive:            8.975794

@<TRIPOS>MOLECULE
76
 41 43 1 0 0
SMALL
GASTEIGER


@<TRIPOS>ATOM
      1 O          10.0532   13.3902   41.5215 O.2     1  UNL1       -0.2450
      2 C           9.9071   13.7842   42.6634 C.2     1  UNL1        0.3395
      3 O          10.9219   14.2754   43.4232 O.3     1  UNL1       -0.4578
      4 C           8.5670   13.8398   43.3096 C.2     1  UNL1        0.0591
      5 C          12.2821   14.1330   42.9263 C.3     1  UNL1        0.1063
      6 C           7.7555   12.6095   43.4150 C.ar    1  UNL1       -0.0116
      7 C           8.0921   15.0072   43.7773 C.2     1  UNL1       -0.0841
      8 C          12.8669   12.7433   43.3000 C.3     1  UNL1        0.0000
      9 C          13.1958   15.2727   43.4494 C.3     1  UNL1        0.0000
     10 C           8.3856   11.3634   43.4015 C.ar    1  UNL1       -0.0538
     11 C           6.3619   12.6770   43.4603 C.ar    1  UNL1       -0.0538
     12 C          14.4037   12.6730   43.0231 C.3     1  UNL1        0.0138
     13 C          14.7062   14.9572   43.1874 C.3     1  UNL1        0.0138
     14 C           7.6294   10.1939   43.4326 C.ar    1  UNL1       -0.0612
     15 C           5.6053   11.5066   43.4941 C.ar    1  UNL1       -0.0612
     16 N          14.8053   13.8465   42.2060 N.3     1  UNL1       -0.2992
     17 C          15.2130   12.8570   44.3271 C.3     1  UNL1       -0.0358
     18 C          15.3850   14.3825   44.4545 C.3     1  UNL1       -0.0358
     19 C           6.2387   10.2651   43.4776 C.ar    1  UNL1       -0.0617
     20 C          16.1203   13.7136   41.5367 C.3     1  UNL1       -0.0122
     21 H          12.2663   14.2219   41.8359 H       1  UNL1        0.0735
     22 H           8.6622   15.9295   43.7106 H       1  UNL1        0.0543
     23 H           7.1128   15.0666   44.2472 H       1  UNL1        0.0543
     24 H          12.3638   11.9778   42.7063 H       1  UNL1        0.0316
     25 H          12.6475   12.5202   44.3473 H       1  UNL1        0.0316
     26 H          13.0066   15.4543   44.5095 H       1  UNL1        0.0316
     27 H          12.9296   16.1911   42.9219 H       1  UNL1        0.0316
     28 H           9.4706   11.3039   43.3534 H       1  UNL1        0.0624
     29 H           5.8639   13.6436   43.4627 H       1  UNL1        0.0624
     30 H          14.6497   11.7258   42.5349 H       1  UNL1        0.0464
     31 H          15.2187   15.8589   42.8412 H       1  UNL1        0.0464
     32 H           8.1251    9.2264   43.4142 H       1  UNL1        0.0618
     33 H           4.5201   11.5621   43.5263 H       1  UNL1        0.0618
     34 H          16.1935   12.3851   44.2245 H       1  UNL1        0.0281
     35 H          14.7209   12.4223   45.2001 H       1  UNL1        0.0281
     36 H          14.9470   14.7654   45.3789 H       1  UNL1        0.0281
     37 H          16.4482   14.6340   44.4560 H       1  UNL1        0.0281
     38 H           5.6482    9.3522   43.4964 H       1  UNL1        0.0618
     39 H          16.0939   12.8658   40.8472 H       1  UNL1        0.0391
     40 H          16.9234   13.5565   42.2617 H       1  UNL1        0.0391
     41 H          16.3320   14.6205   40.9641 H       1  UNL1        0.0391
@<TRIPOS>BOND
     1     1     2    2
     2     2     3    1
     3     2     4    1
     4     3     5    1
     5     4     6    1
     6     4     7    2
     7     5     8    1
     8     5     9    1
     9     6    10   ar
    10     6    11   ar
    11     8    12    1
    12     9    13    1
    13    10    14   ar
    14    11    15   ar
    15    12    16    1
    16    12    17    1
    17    13    18    1
    18    14    19   ar
    19    16    20    1
    20    13    16    1
    21    15    19   ar
    22    17    18    1
    23     5    21    1
    24     7    22    1
    25     7    23    1
    26     8    24    1
    27     8    25    1
    28     9    26    1
    29     9    27    1
    30    10    28    1
    31    11    29    1
    32    12    30    1
    33    13    31    1
    34    14    32    1
    35    15    33    1
    36    17    34    1
    37    17    35    1
    38    18    36    1
    39    18    37    1
    40    19    38    1
    41    20    39    1
    42    20    40    1
    43    20    41    1
@<TRIPOS>SUBSTRUCTURE
     1 UNL1        1 TEMP              0 ****  ****    0 ROOT


##########                                Name:                  76
##########                DOCK_Rotatable_Bonds:                   4
##########                         Heavy_Atoms:                  20
##########                    Molecular_Weight:             271.359
##########                       Formal_Charge:         0.000500061
##########                     HBond_Acceptors:                   3
##########                        HBond_Donors:                   0
##########                    Continuous_Score:          -32.297791
##########               Continuous_vdw_energy:          -30.853527
##########                Continuous_es_energy:           -1.444264
##########           Internal_energy_repulsive:            6.516287

@<TRIPOS>MOLECULE
76
 41 43 1 0 0
SMALL
GASTEIGER


@<TRIPOS>ATOM
      1 O           8.4593   11.2831   43.3068 O.2     1  UNL1       -0.2450
      2 C           8.4776   12.3092   42.6533 C.2     1  UNL1        0.3395
      3 O           9.5991   12.8042   42.0652 O.3     1  UNL1       -0.4578
      4 C           7.2368   13.0807   42.3677 C.2     1  UNL1        0.0591
      5 C          10.8870   12.4719   42.6552 C.3     1  UNL1        0.1063
      6 C           6.1707   13.1531   43.3885 C.ar    1  UNL1       -0.0116
      7 C           7.0812   13.6918   41.1805 C.2     1  UNL1       -0.0841
      8 C          11.0888   13.2166   44.0032 C.3     1  UNL1        0.0000
      9 C          12.0514   12.7798   41.6773 C.3     1  UNL1        0.0000
     10 C           6.4840   13.5619   44.6864 C.ar    1  UNL1       -0.0538
     11 C           4.8677   12.7535   43.0870 C.ar    1  UNL1       -0.0538
     12 C          12.5615   13.0944   44.5127 C.3     1  UNL1        0.0138
     13 C          13.4357   12.7290   42.4060 C.3     1  UNL1        0.0138
     14 C           5.5033   13.5707   45.6756 C.ar    1  UNL1       -0.0612
     15 C           3.8855   12.7650   44.0763 C.ar    1  UNL1       -0.0612
     16 N          13.2665   12.0555   43.7192 N.3     1  UNL1       -0.2992
     17 C          13.3647   14.3789   44.2058 C.3     1  UNL1       -0.0358
     18 C          13.9191   14.1493   42.7871 C.3     1  UNL1       -0.0358
     19 C           4.2038   13.1711   45.3712 C.ar    1  UNL1       -0.0617
     20 C          14.5167   11.5505   44.3331 C.3     1  UNL1       -0.0122
     21 H          10.9163   11.3947   42.8450 H       1  UNL1        0.0735
     22 H           7.8441   13.6533   40.4082 H       1  UNL1        0.0543
     23 H           6.1787   14.2550   40.9535 H       1  UNL1        0.0543
     24 H          10.4182   12.7846   44.7485 H       1  UNL1        0.0316
     25 H          10.7988   14.2647   43.8928 H       1  UNL1        0.0316
     26 H          11.8941   13.7455   41.1920 H       1  UNL1        0.0316
     27 H          12.0400   12.0265   40.8867 H       1  UNL1        0.0316
     28 H           7.5005   13.8622   44.9307 H       1  UNL1        0.0624
     29 H           4.6180   12.4261   42.0805 H       1  UNL1        0.0624
     30 H          12.5662   12.8708   45.5833 H       1  UNL1        0.0464
     31 H          14.1688   12.2201   41.7743 H       1  UNL1        0.0464
     32 H           5.7548   13.8827   46.6864 H       1  UNL1        0.0618
     33 H           2.8723   12.4504   43.8395 H       1  UNL1        0.0618
     34 H          14.1935   14.4752   44.9118 H       1  UNL1        0.0281
     35 H          12.7605   15.2865   44.2715 H       1  UNL1        0.0281
     36 H          13.5756   14.9144   42.0874 H       1  UNL1        0.0281
     37 H          15.0112   14.1793   42.8094 H       1  UNL1        0.0281
     38 H           3.4395   13.1729   46.1447 H       1  UNL1        0.0618
     39 H          14.2878   11.0855   45.2955 H       1  UNL1        0.0391
     40 H          15.2381   12.3566   44.4911 H       1  UNL1        0.0391
     41 H          14.9649   10.7963   43.6809 H       1  UNL1        0.0391
@<TRIPOS>BOND
     1     1     2    2
     2     2     3    1
     3     2     4    1
     4     3     5    1
     5     4     6    1
     6     4     7    2
     7     5     8    1
     8     5     9    1
     9     6    10   ar
    10     6    11   ar
    11     8    12    1
    12     9    13    1
    13    10    14   ar
    14    11    15   ar
    15    12    16    1
    16    12    17    1
    17    13    18    1
    18    14    19   ar
    19    16    20    1
    20    13    16    1
    21    15    19   ar
    22    17    18    1
    23     5    21    1
    24     7    22    1
    25     7    23    1
    26     8    24    1
    27     8    25    1
    28     9    26    1
    29     9    27    1
    30    10    28    1
    31    11    29    1
    32    12    30    1
    33    13    31    1
    34    14    32    1
    35    15    33    1
    36    17    34    1
    37    17    35    1
    38    18    36    1
    39    18    37    1
    40    19    38    1
    41    20    39    1
    42    20    40    1
    43    20    41    1
@<TRIPOS>SUBSTRUCTURE
     1 UNL1        1 TEMP              0 ****  ****    0 ROOT


##########                                Name:                  77
##########                DOCK_Rotatable_Bonds:                   1
##########                         Heavy_Atoms:                  12
##########                    Molecular_Weight:             162.235
##########                       Formal_Charge:         0.000100013
##########                     HBond_Acceptors:                   2
##########                        HBond_Donors:                   0
##########                    Continuous_Score:          -21.078640
##########               Continuous_vdw_energy:          -20.762491
##########                Continuous_es_energy:           -0.316149
##########           Internal_energy_repulsive:            5.953270

@<TRIPOS>MOLECULE
77
 26 27 1 0 0
SMALL
GASTEIGER


@<TRIPOS>ATOM
      1 N          22.0573    7.4689   40.0153 N.ar    1  UNL1       -0.2629
      2 C          22.5760    7.8275   38.8185 C.ar    1  UNL1        0.0322
      3 C          21.9902    8.4143   40.9783 C.ar    1  UNL1        0.0276
      4 C          23.0323    9.1166   38.5295 C.ar    1  UNL1       -0.0122
      5 C          22.4308    9.7213   40.7818 C.ar    1  UNL1       -0.0433
      6 C          22.9554   10.0790   39.5427 C.ar    1  UNL1       -0.0542
      7 C          23.5694    9.4186   37.1234 C.3     1  UNL1        0.0368
      8 N          25.0342    9.2537   36.9983 N.3     1  UNL1       -0.2984
      9 C          23.0465    8.4718   36.0227 C.3     1  UNL1       -0.0320
     10 C          25.2865    7.8211   36.7757 C.3     1  UNL1       -0.0008
     11 C          25.8700    9.8827   38.0438 C.3     1  UNL1       -0.0122
     12 C          24.1235    7.3752   35.8724 C.3     1  UNL1       -0.0385
     13 H          22.6015    7.0415   38.0658 H       1  UNL1        0.0833
     14 H          21.5660    8.0983   41.9295 H       1  UNL1        0.0829
     15 H          22.3620   10.4523   41.5834 H       1  UNL1        0.0633
     16 H          23.2923   11.0982   39.3833 H       1  UNL1        0.0622
     17 H          23.3025   10.4464   36.8604 H       1  UNL1        0.0512
     18 H          22.9685    9.0235   35.0824 H       1  UNL1        0.0284
     19 H          22.0607    8.0605   36.2520 H       1  UNL1        0.0284
     20 H          25.2394    7.2830   37.7275 H       1  UNL1        0.0427
     21 H          26.2575    7.6512   36.3026 H       1  UNL1        0.0427
     22 H          25.6294   10.9471   38.1211 H       1  UNL1        0.0391
     23 H          26.9262    9.7807   37.7804 H       1  UNL1        0.0391
     24 H          25.6992    9.4047   39.0124 H       1  UNL1        0.0391
     25 H          24.4512    7.3100   34.8323 H       1  UNL1        0.0278
     26 H          23.7479    6.3965   36.1803 H       1  UNL1        0.0278
@<TRIPOS>BOND
     1     1     2   ar
     2     1     3   ar
     3     2     4   ar
     4     3     5   ar
     5     4     6   ar
     6     7     8    1
     7     7     9    1
     8     8    10    1
     9     8    11    1
    10     9    12    1
    11     5     6   ar
    12    10    12    1
    13     7     4    1
    14     2    13    1
    15     3    14    1
    16     5    15    1
    17     6    16    1
    18     7    17    1
    19     9    18    1
    20     9    19    1
    21    10    20    1
    22    10    21    1
    23    11    22    1
    24    11    23    1
    25    11    24    1
    26    12    25    1
    27    12    26    1
@<TRIPOS>SUBSTRUCTURE
     1 UNL1        1 TEMP              0 ****  ****    0 ROOT


##########                                Name:                  77
##########                DOCK_Rotatable_Bonds:                   1
##########                         Heavy_Atoms:                  12
##########                    Molecular_Weight:             162.235
##########                       Formal_Charge:         0.000100013
##########                     HBond_Acceptors:                   2
##########                        HBond_Donors:                   0
##########                    Continuous_Score:          -21.226173
##########               Continuous_vdw_energy:          -20.960838
##########                Continuous_es_energy:           -0.265336
##########           Internal_energy_repulsive:            5.841404

@<TRIPOS>MOLECULE
77
 26 27 1 0 0
SMALL
GASTEIGER


@<TRIPOS>ATOM
      1 N          21.9748    7.5183   40.1998 N.ar    1  UNL1       -0.2629
      2 C          22.4718    7.8593   38.9888 C.ar    1  UNL1        0.0322
      3 C          21.9484    8.4708   41.1578 C.ar    1  UNL1        0.0276
      4 C          22.9458    9.1376   38.6806 C.ar    1  UNL1       -0.0122
      5 C          22.4090    9.7678   40.9422 C.ar    1  UNL1       -0.0433
      6 C          22.9111   10.1076   39.6888 C.ar    1  UNL1       -0.0542
      7 C          23.4551    9.4204   37.2604 C.3     1  UNL1        0.0368
      8 N          24.9092    9.2033   37.0960 N.3     1  UNL1       -0.2984
      9 C          22.8694    8.4931   36.1749 C.3     1  UNL1       -0.0320
     10 C          25.1040    7.7626   36.8679 C.3     1  UNL1       -0.0008
     11 C          25.7948    9.8018   38.1181 C.3     1  UNL1       -0.0122
     12 C          23.9020    7.3587   35.9966 C.3     1  UNL1       -0.0385
     13 H          22.4645    7.0684   38.2410 H       1  UNL1        0.0833
     14 H          21.5408    8.1690   42.1207 H       1  UNL1        0.0829
     15 H          22.3732   10.5050   41.7405 H       1  UNL1        0.0633
     16 H          23.2635   11.1192   39.5147 H       1  UNL1        0.0622
     17 H          23.2183   10.4572   37.0038 H       1  UNL1        0.0512
     18 H          22.7857    9.0474   35.2366 H       1  UNL1        0.0284
     19 H          21.8760    8.1174   36.4309 H       1  UNL1        0.0284
     20 H          25.0634    7.2265   37.8210 H       1  UNL1        0.0427
     21 H          26.0553    7.5583   36.3690 H       1  UNL1        0.0427
     22 H          25.5946   10.8741   38.2011 H       1  UNL1        0.0391
     23 H          26.8393    9.6622   37.8265 H       1  UNL1        0.0391
     24 H          25.6332    9.3302   39.0914 H       1  UNL1        0.0391
     25 H          24.1991    7.2821   34.9481 H       1  UNL1        0.0278
     26 H          23.5001    6.3941   36.3153 H       1  UNL1        0.0278
@<TRIPOS>BOND
     1     1     2   ar
     2     1     3   ar
     3     2     4   ar
     4     3     5   ar
     5     4     6   ar
     6     7     8    1
     7     7     9    1
     8     8    10    1
     9     8    11    1
    10     9    12    1
    11     5     6   ar
    12    10    12    1
    13     7     4    1
    14     2    13    1
    15     3    14    1
    16     5    15    1
    17     6    16    1
    18     7    17    1
    19     9    18    1
    20     9    19    1
    21    10    20    1
    22    10    21    1
    23    11    22    1
    24    11    23    1
    25    11    24    1
    26    12    25    1
    27    12    26    1
@<TRIPOS>SUBSTRUCTURE
     1 UNL1        1 TEMP              0 ****  ****    0 ROOT


##########                                Name:                  77
##########                DOCK_Rotatable_Bonds:                   1
##########                         Heavy_Atoms:                  12
##########                    Molecular_Weight:             162.235
##########                       Formal_Charge:         0.000100013
##########                     HBond_Acceptors:                   2
##########                        HBond_Donors:                   0
##########                    Continuous_Score:          -21.930658
##########               Continuous_vdw_energy:          -21.837742
##########                Continuous_es_energy:           -0.092916
##########           Internal_energy_repulsive:            4.417383

@<TRIPOS>MOLECULE
77
 26 27 1 0 0
SMALL
GASTEIGER


@<TRIPOS>ATOM
      1 N          21.7915    7.6142   40.0358 N.ar    1  UNL1       -0.2629
      2 C          22.5912    7.4213   38.9621 C.ar    1  UNL1        0.0322
      3 C          21.8797    8.7992   40.6789 C.ar    1  UNL1        0.0276
      4 C          23.4882    8.3812   38.4849 C.ar    1  UNL1       -0.0122
      5 C          22.7524    9.8091   40.2793 C.ar    1  UNL1       -0.0433
      6 C          23.5647    9.6002   39.1680 C.ar    1  UNL1       -0.0542
      7 C          24.3214    8.0653   37.2349 C.3     1  UNL1        0.0368
      8 N          23.7131    8.5503   35.9767 N.3     1  UNL1       -0.2984
      9 C          25.7068    8.7440   37.2020 C.3     1  UNL1       -0.0320
     10 C          24.0747    9.9707   35.8459 C.3     1  UNL1       -0.0008
     11 C          22.2816    8.2454   35.7645 C.3     1  UNL1       -0.0122
     12 C          25.5157   10.0379   36.3807 C.3     1  UNL1       -0.0385
     13 H          22.4816    6.4595   38.4644 H       1  UNL1        0.0833
     14 H          21.2227    8.9274   41.5370 H       1  UNL1        0.0829
     15 H          22.7955   10.7480   40.8255 H       1  UNL1        0.0633
     16 H          24.2401   10.3876   38.8489 H       1  UNL1        0.0622
     17 H          24.4580    6.9817   37.1703 H       1  UNL1        0.0512
     18 H          26.4128    8.0933   36.6794 H       1  UNL1        0.0284
     19 H          26.1066    8.9378   38.2000 H       1  UNL1        0.0284
     20 H          23.4202   10.5805   36.4763 H       1  UNL1        0.0427
     21 H          24.0095   10.3098   34.8084 H       1  UNL1        0.0427
     22 H          22.1134    7.1684   35.8579 H       1  UNL1        0.0391
     23 H          21.9837    8.5605   34.7608 H       1  UNL1        0.0391
     24 H          21.6634    8.7702   36.4983 H       1  UNL1        0.0391
     25 H          26.2290   10.0671   35.5537 H       1  UNL1        0.0278
     26 H          25.6592   10.9299   36.9948 H       1  UNL1        0.0278
@<TRIPOS>BOND
     1     1     2   ar
     2     1     3   ar
     3     2     4   ar
     4     3     5   ar
     5     4     6   ar
     6     7     8    1
     7     7     9    1
     8     8    10    1
     9     8    11    1
    10     9    12    1
    11     5     6   ar
    12    10    12    1
    13     7     4    1
    14     2    13    1
    15     3    14    1
    16     5    15    1
    17     6    16    1
    18     7    17    1
    19     9    18    1
    20     9    19    1
    21    10    20    1
    22    10    21    1
    23    11    22    1
    24    11    23    1
    25    11    24    1
    26    12    25    1
    27    12    26    1
@<TRIPOS>SUBSTRUCTURE
     1 UNL1        1 TEMP              0 ****  ****    0 ROOT


##########                                Name:                  78
##########                DOCK_Rotatable_Bonds:                   6
##########                         Heavy_Atoms:                  21
##########                    Molecular_Weight:             289.374
##########                       Formal_Charge:         0.000300266
##########                     HBond_Acceptors:                   4
##########                        HBond_Donors:                   1
##########                    Continuous_Score:          -36.604271
##########               Continuous_vdw_energy:          -36.399719
##########                Continuous_es_energy:           -0.204552
##########           Internal_energy_repulsive:            8.406513

@<TRIPOS>MOLECULE
78
 44 46 1 0 0
SMALL
GASTEIGER


@<TRIPOS>ATOM
      1 O           8.1606   10.2258   43.4749 O.2     1  UNL1       -0.2501
      2 C           7.7373   11.3041   43.1019 C.2     1  UNL1        0.3171
      3 O           8.5245   12.3603   42.7744 O.3     1  UNL1       -0.4608
      4 C           6.2483   11.5973   42.9511 C.3     1  UNL1        0.1044
      5 C           9.9202   12.3434   43.1873 C.3     1  UNL1        0.1059
      6 C           5.6438   12.2029   44.2203 C.ar    1  UNL1       -0.0315
      7 C           5.9838   12.5361   41.7500 C.3     1  UNL1        0.0612
      8 C          10.2129   13.4228   44.2688 C.3     1  UNL1        0.0000
      9 C          10.8527   12.5322   41.9612 C.3     1  UNL1        0.0000
     10 C           6.0771   13.4372   44.7216 C.ar    1  UNL1       -0.0577
     11 C           4.5862   11.5495   44.8596 C.ar    1  UNL1       -0.0577
     12 O           6.4570   11.9617   40.5276 O.3     1  UNL1       -0.3939
     13 C          11.7473   13.6145   44.4948 C.3     1  UNL1        0.0138
     14 C          12.3220   12.8470   42.3952 C.3     1  UNL1        0.0138
     15 C           5.4732   13.9971   45.8459 C.ar    1  UNL1       -0.0615
     16 C           3.9769   12.1137   45.9797 C.ar    1  UNL1       -0.0615
     17 N          12.4816   12.5071   43.8318 N.3     1  UNL1       -0.2992
     18 C          12.2620   14.8727   43.7599 C.3     1  UNL1       -0.0358
     19 C          12.6103   14.3681   42.3478 C.3     1  UNL1       -0.0358
     20 C           4.4212   13.3370   46.4749 C.ar    1  UNL1       -0.0617
     21 C          13.8835   12.3370   44.2796 C.3     1  UNL1       -0.0122
     22 H           5.7426   10.6493   42.7483 H       1  UNL1        0.0485
     23 H          10.1385   11.3585   43.6128 H       1  UNL1        0.0735
     24 H           6.4771   13.4979   41.9172 H       1  UNL1        0.0568
     25 H           4.9083   12.7109   41.6627 H       1  UNL1        0.0568
     26 H           9.7592   13.1170   45.2131 H       1  UNL1        0.0316
     27 H           9.7379   14.3656   43.9862 H       1  UNL1        0.0316
     28 H          10.4614   13.3147   41.3063 H       1  UNL1        0.0316
     29 H          10.8454   11.6073   41.3804 H       1  UNL1        0.0316
     30 H           6.8819   13.9833   44.2368 H       1  UNL1        0.0621
     31 H           4.2192   10.6001   44.4770 H       1  UNL1        0.0621
     32 H           7.3615   12.2898   40.3656 H       1  UNL1        0.2094
     33 H          11.9607   13.6668   45.5664 H       1  UNL1        0.0464
     34 H          13.0216   12.2950   41.7610 H       1  UNL1        0.0464
     35 H           5.8181   14.9555   46.2267 H       1  UNL1        0.0618
     36 H           3.1487   11.6016   46.4635 H       1  UNL1        0.0618
     37 H          13.1649   15.2452   44.2509 H       1  UNL1        0.0281
     38 H          11.5315   15.6847   43.7411 H       1  UNL1        0.0281
     39 H          12.0327   14.8842   41.5774 H       1  UNL1        0.0281
     40 H          13.6704   14.5418   42.1471 H       1  UNL1        0.0281
     41 H           3.9435   13.7793   47.3455 H       1  UNL1        0.0618
     42 H          13.8987   12.1024   45.3475 H       1  UNL1        0.0391
     43 H          14.4707   13.2421   44.1068 H       1  UNL1        0.0391
     44 H          14.3425   11.5074   43.7351 H       1  UNL1        0.0391
@<TRIPOS>BOND
     1     1     2    2
     2     2     3    1
     3     2     4    1
     4     3     5    1
     5     4     6    1
     6     4     7    1
     7     5     8    1
     8     5     9    1
     9     6    10   ar
    10     6    11   ar
    11     7    12    1
    12     8    13    1
    13     9    14    1
    14    10    15   ar
    15    11    16   ar
    16    13    17    1
    17    13    18    1
    18    14    19    1
    19    15    20   ar
    20    17    21    1
    21    14    17    1
    22    16    20   ar
    23    18    19    1
    24     4    22    1
    25     5    23    1
    26     7    24    1
    27     7    25    1
    28     8    26    1
    29     8    27    1
    30     9    28    1
    31     9    29    1
    32    10    30    1
    33    11    31    1
    34    12    32    1
    35    13    33    1
    36    14    34    1
    37    15    35    1
    38    16    36    1
    39    18    37    1
    40    18    38    1
    41    19    39    1
    42    19    40    1
    43    20    41    1
    44    21    42    1
    45    21    43    1
    46    21    44    1
@<TRIPOS>SUBSTRUCTURE
     1 UNL1        1 TEMP              0 ****  ****    0 ROOT


##########                                Name:                  78
##########                DOCK_Rotatable_Bonds:                   6
##########                         Heavy_Atoms:                  21
##########                    Molecular_Weight:             289.374
##########                       Formal_Charge:         0.000300266
##########                     HBond_Acceptors:                   4
##########                        HBond_Donors:                   1
##########                    Continuous_Score:          -36.249748
##########               Continuous_vdw_energy:          -34.171841
##########                Continuous_es_energy:           -2.077908
##########           Internal_energy_repulsive:           10.393116

@<TRIPOS>MOLECULE
78
 44 46 1 0 0
SMALL
GASTEIGER


@<TRIPOS>ATOM
      1 O           8.3762   14.1763   42.1602 O.2     1  UNL1       -0.2501
      2 C           8.3850   13.0274   42.5609 C.2     1  UNL1        0.3171
      3 O           9.5130   12.3279   42.8459 O.3     1  UNL1       -0.4608
      4 C           7.1083   12.2280   42.7989 C.3     1  UNL1        0.1044
      5 C          10.7948   13.0137   42.7734 C.3     1  UNL1        0.1059
      6 C           6.3455   12.7061   44.0368 C.ar    1  UNL1       -0.0315
      7 C           6.1789   12.2807   41.5630 C.3     1  UNL1        0.0612
      8 C          11.9593   12.0258   42.4766 C.3     1  UNL1        0.0000
      9 C          11.0662   13.7995   44.0841 C.3     1  UNL1        0.0000
     10 C           5.0166   12.3289   44.2698 C.ar    1  UNL1       -0.0577
     11 C           7.0049   13.4792   44.9968 C.ar    1  UNL1       -0.0577
     12 O           6.8765   11.9021   40.3719 O.3     1  UNL1       -0.3939
     13 C          13.3551   12.6943   42.6949 C.3     1  UNL1        0.0138
     14 C          12.5543   14.2714   44.1777 C.3     1  UNL1        0.0138
     15 C           4.3596   12.7287   45.4320 C.ar    1  UNL1       -0.0615
     16 C           6.3499   13.8724   46.1634 C.ar    1  UNL1       -0.0615
     17 N          13.1783   14.1619   42.8348 N.3     1  UNL1       -0.2992
     18 C          13.9616   12.2778   44.0539 C.3     1  UNL1       -0.0358
     19 C          13.3976   13.3080   45.0494 C.3     1  UNL1       -0.0358
     20 C           5.0262   13.4991   46.3808 C.ar    1  UNL1       -0.0617
     21 C          14.4165   14.9555   42.6565 C.3     1  UNL1       -0.0122
     22 H           7.3946   11.1840   42.9538 H       1  UNL1        0.0485
     23 H          10.7452   13.7454   41.9606 H       1  UNL1        0.0735
     24 H           5.7770   13.2909   41.4458 H       1  UNL1        0.0568
     25 H           5.3433   11.5925   41.7142 H       1  UNL1        0.0568
     26 H          11.8928   11.6939   41.4392 H       1  UNL1        0.0316
     27 H          11.8516   11.1324   43.0968 H       1  UNL1        0.0316
     28 H          10.7919   13.1935   44.9512 H       1  UNL1        0.0316
     29 H          10.4150   14.6761   44.0983 H       1  UNL1        0.0316
     30 H           4.4803   11.7101   43.5555 H       1  UNL1        0.0621
     31 H           8.0428   13.7674   44.8476 H       1  UNL1        0.0621
     32 H           6.2350   11.8753   39.6373 H       1  UNL1        0.2094
     33 H          14.0230   12.4366   41.8678 H       1  UNL1        0.0464
     34 H          12.5952   15.2920   44.5690 H       1  UNL1        0.0464
     35 H           3.3278   12.4306   45.6023 H       1  UNL1        0.0618
     36 H           6.8754   14.4654   46.9079 H       1  UNL1        0.0618
     37 H          15.0509   12.3618   44.0150 H       1  UNL1        0.0281
     38 H          13.7143   11.2516   44.3353 H       1  UNL1        0.0281
     39 H          12.8129   12.8318   45.8400 H       1  UNL1        0.0281
     40 H          14.2202   13.8522   45.5198 H       1  UNL1        0.0281
     41 H           4.5166   13.8017   47.2922 H       1  UNL1        0.0618
     42 H          14.8060   14.8009   41.6466 H       1  UNL1        0.0391
     43 H          15.1830   14.6678   43.3802 H       1  UNL1        0.0391
     44 H          14.1906   16.0177   42.7830 H       1  UNL1        0.0391
@<TRIPOS>BOND
     1     1     2    2
     2     2     3    1
     3     2     4    1
     4     3     5    1
     5     4     6    1
     6     4     7    1
     7     5     8    1
     8     5     9    1
     9     6    10   ar
    10     6    11   ar
    11     7    12    1
    12     8    13    1
    13     9    14    1
    14    10    15   ar
    15    11    16   ar
    16    13    17    1
    17    13    18    1
    18    14    19    1
    19    15    20   ar
    20    17    21    1
    21    14    17    1
    22    16    20   ar
    23    18    19    1
    24     4    22    1
    25     5    23    1
    26     7    24    1
    27     7    25    1
    28     8    26    1
    29     8    27    1
    30     9    28    1
    31     9    29    1
    32    10    30    1
    33    11    31    1
    34    12    32    1
    35    13    33    1
    36    14    34    1
    37    15    35    1
    38    16    36    1
    39    18    37    1
    40    18    38    1
    41    19    39    1
    42    19    40    1
    43    20    41    1
    44    21    42    1
    45    21    43    1
    46    21    44    1
@<TRIPOS>SUBSTRUCTURE
     1 UNL1        1 TEMP              0 ****  ****    0 ROOT


##########                                Name:                  78
##########                DOCK_Rotatable_Bonds:                   6
##########                         Heavy_Atoms:                  21
##########                    Molecular_Weight:             289.374
##########                       Formal_Charge:         0.000300266
##########                     HBond_Acceptors:                   4
##########                        HBond_Donors:                   1
##########                    Continuous_Score:          -36.020866
##########               Continuous_vdw_energy:          -35.262657
##########                Continuous_es_energy:           -0.758210
##########           Internal_energy_repulsive:            8.016491

@<TRIPOS>MOLECULE
78
 44 46 1 0 0
SMALL
GASTEIGER


@<TRIPOS>ATOM
      1 O           8.0447   10.3377   43.5727 O.2     1  UNL1       -0.2501
      2 C           7.7516   11.3429   42.9526 C.2     1  UNL1        0.3171
      3 O           8.6570   12.1777   42.3816 O.3     1  UNL1       -0.4608
      4 C           6.3085   11.7861   42.7364 C.3     1  UNL1        0.1044
      5 C           9.9940   12.2508   42.9524 C.3     1  UNL1        0.1059
      6 C           5.6686   12.3271   44.0172 C.ar    1  UNL1       -0.0315
      7 C           6.2140   12.8511   41.6180 C.3     1  UNL1        0.0612
      8 C          10.0833   13.3279   44.0714 C.3     1  UNL1        0.0000
      9 C          11.0443   12.5269   41.8438 C.3     1  UNL1        0.0000
     10 C           4.6806   11.6085   44.7029 C.ar    1  UNL1       -0.0577
     11 C           6.1249   13.5318   44.5602 C.ar    1  UNL1       -0.0577
     12 O           4.8594   13.2593   41.4023 O.3     1  UNL1       -0.3939
     13 C          11.5644   13.6221   44.4745 C.3     1  UNL1        0.0138
     14 C          12.4282   12.9356   42.4472 C.3     1  UNL1        0.0138
     15 C           4.1527   12.0930   45.8982 C.ar    1  UNL1       -0.0615
     16 C           5.6024   14.0123   45.7603 C.ar    1  UNL1       -0.0615
     17 N          12.4469   12.5812   43.8891 N.3     1  UNL1       -0.2992
     18 C          12.0681   14.9266   43.8169 C.3     1  UNL1       -0.0358
     19 C          12.6105   14.4738   42.4491 C.3     1  UNL1       -0.0358
     20 C           4.6143   13.2943   46.4291 C.ar    1  UNL1       -0.0617
     21 C          13.7970   12.5012   44.4936 C.3     1  UNL1       -0.0122
     22 H           5.7385   10.9118   42.4102 H       1  UNL1        0.0485
     23 H          10.2323   11.2759   43.3899 H       1  UNL1        0.0735
     24 H           6.6272   12.4486   40.6888 H       1  UNL1        0.0568
     25 H           6.8027   13.7258   41.9065 H       1  UNL1        0.0568
     26 H           9.5480   12.9736   44.9539 H       1  UNL1        0.0316
     27 H           9.5775   14.2402   43.7458 H       1  UNL1        0.0316
     28 H          10.6755   13.2921   41.1562 H       1  UNL1        0.0316
     29 H          11.1695   11.6147   41.2564 H       1  UNL1        0.0316
     30 H           4.3181   10.6578   44.3213 H       1  UNL1        0.0621
     31 H           6.9053   14.0973   44.0565 H       1  UNL1        0.0621
     32 H           4.8460   13.8965   40.6635 H       1  UNL1        0.2094
     33 H          11.6496   13.6694   45.5641 H       1  UNL1        0.0464
     34 H          13.2335   12.4457   41.8923 H       1  UNL1        0.0464
     35 H           3.3857   11.5272   46.4218 H       1  UNL1        0.0618
     36 H           5.9714   14.9455   46.1785 H       1  UNL1        0.0618
     37 H          12.8802   15.3522   44.4123 H       1  UNL1        0.0281
     38 H          11.2883   15.6857   43.7224 H       1  UNL1        0.0281
     39 H          12.0892   14.9623   41.6227 H       1  UNL1        0.0281
     40 H          13.6714   14.7247   42.3736 H       1  UNL1        0.0281
     41 H           4.2098   13.6664   47.3670 H       1  UNL1        0.0618
     42 H          13.7070   12.2485   45.5536 H       1  UNL1        0.0391
     43 H          14.3338   13.4482   44.3990 H       1  UNL1        0.0391
     44 H          14.3733   11.7159   43.9970 H       1  UNL1        0.0391
@<TRIPOS>BOND
     1     1     2    2
     2     2     3    1
     3     2     4    1
     4     3     5    1
     5     4     6    1
     6     4     7    1
     7     5     8    1
     8     5     9    1
     9     6    10   ar
    10     6    11   ar
    11     7    12    1
    12     8    13    1
    13     9    14    1
    14    10    15   ar
    15    11    16   ar
    16    13    17    1
    17    13    18    1
    18    14    19    1
    19    15    20   ar
    20    17    21    1
    21    14    17    1
    22    16    20   ar
    23    18    19    1
    24     4    22    1
    25     5    23    1
    26     7    24    1
    27     7    25    1
    28     8    26    1
    29     8    27    1
    30     9    28    1
    31     9    29    1
    32    10    30    1
    33    11    31    1
    34    12    32    1
    35    13    33    1
    36    14    34    1
    37    15    35    1
    38    16    36    1
    39    18    37    1
    40    18    38    1
    41    19    39    1
    42    19    40    1
    43    20    41    1
    44    21    42    1
    45    21    43    1
    46    21    44    1
@<TRIPOS>SUBSTRUCTURE
     1 UNL1        1 TEMP              0 ****  ****    0 ROOT


##########                                Name:                  84
##########                DOCK_Rotatable_Bonds:                   4
##########                         Heavy_Atoms:                  20
##########                    Molecular_Weight:             270.241
##########                       Formal_Charge:        -2.98023e-08
##########                     HBond_Acceptors:                   5
##########                        HBond_Donors:                   3
##########                    Continuous_Score:          -33.059238
##########               Continuous_vdw_energy:          -30.541416
##########                Continuous_es_energy:           -2.517823
##########           Internal_energy_repulsive:           12.373106

@<TRIPOS>MOLECULE
84
 30 32 1 0 0
SMALL
GASTEIGER


@<TRIPOS>ATOM
      1 O          22.3549   10.0857   42.9173 O.2     1  UNL1       -0.2864
      2 C          22.7201   10.5648   41.8591 C.2     1  UNL1        0.2015
      3 C          22.7462    9.7243   40.6090 C.ar    1  UNL1        0.0745
      4 C          23.1511   12.0062   41.7816 C.ar    1  UNL1        0.0745
      5 C          22.3411    8.3759   40.6318 C.ar    1  UNL1        0.1287
      6 C          23.1806   10.2801   39.3989 C.ar    1  UNL1        0.0369
      7 C          23.1451   12.8284   42.9256 C.ar    1  UNL1        0.1283
      8 C          23.5643   12.5497   40.5578 C.ar    1  UNL1        0.0366
      9 O          21.8968    7.7770   41.7771 O.3     1  UNL1       -0.5060
     10 C          22.3812    7.6049   39.4719 C.ar    1  UNL1       -0.0141
     11 C          23.6053   11.7141   39.3152 C.2     1  UNL1        0.1947
     12 C          23.2214    9.4907   38.2441 C.ar    1  UNL1       -0.0446
     13 O          22.7707   12.3553   44.1516 O.3     1  UNL1       -0.5060
     14 C          23.5302   14.1642   42.8383 C.ar    1  UNL1       -0.0194
     15 C          23.9496   13.8935   40.4864 C.ar    1  UNL1       -0.0500
     16 C          22.8252    8.1559   38.2734 C.ar    1  UNL1       -0.0180
     17 O          23.9755   12.1912   38.2597 O.2     1  UNL1       -0.2866
     18 C          23.9295   14.6983   41.6197 C.ar    1  UNL1       -0.0576
     19 C          22.8905    7.3113   37.0118 C.3     1  UNL1        0.0694
     20 O          22.6484    8.1186   35.8594 O.3     1  UNL1       -0.3904
     21 H          21.5441    6.8795   41.5403 H       1  UNL1        0.2922
     22 H          22.0664    6.5641   39.5077 H       1  UNL1        0.0658
     23 H          23.5648    9.9162   37.3031 H       1  UNL1        0.0628
     24 H          22.5934   11.3834   44.0649 H       1  UNL1        0.2922
     25 H          23.5195   14.7936   43.7256 H       1  UNL1        0.0654
     26 H          24.2683   14.3269   39.5409 H       1  UNL1        0.0625
     27 H          24.2280   15.7418   41.5534 H       1  UNL1        0.0619
     28 H          22.1490    6.5080   37.0440 H       1  UNL1        0.0607
     29 H          23.8801    6.8545   36.9210 H       1  UNL1        0.0607
     30 H          21.7798    8.5487   35.9563 H       1  UNL1        0.2098
@<TRIPOS>BOND
     1     1     2    2
     2     2     3    1
     3     2     4    1
     4     3     5   ar
     5     3     6   ar
     6     4     7   ar
     7     4     8   ar
     8     5     9    1
     9     5    10   ar
    10     6    11    1
    11     6    12   ar
    12     7    13    1
    13     7    14   ar
    14     8    15   ar
    15    10    16   ar
    16    11    17    2
    17    14    18   ar
    18    16    19    1
    19    19    20    1
    20     8    11    1
    21    12    16   ar
    22    15    18   ar
    23     9    21    1
    24    10    22    1
    25    12    23    1
    26    13    24    1
    27    14    25    1
    28    15    26    1
    29    18    27    1
    30    19    28    1
    31    19    29    1
    32    20    30    1
@<TRIPOS>SUBSTRUCTURE
     1 UNL1        1 TEMP              0 ****  ****    0 ROOT


##########                                Name:                  84
##########                DOCK_Rotatable_Bonds:                   4
##########                         Heavy_Atoms:                  20
##########                    Molecular_Weight:             270.241
##########                       Formal_Charge:        -2.98023e-08
##########                     HBond_Acceptors:                   5
##########                        HBond_Donors:                   3
##########                    Continuous_Score:          -32.944016
##########               Continuous_vdw_energy:          -30.434221
##########                Continuous_es_energy:           -2.509793
##########           Internal_energy_repulsive:           12.344880

@<TRIPOS>MOLECULE
84
 30 32 1 0 0
SMALL
GASTEIGER


@<TRIPOS>ATOM
      1 O          22.3974   10.1233   42.8606 O.2     1  UNL1       -0.2864
      2 C          22.7635   10.5852   41.7951 C.2     1  UNL1        0.2015
      3 C          22.7787    9.7281   40.5562 C.ar    1  UNL1        0.0745
      4 C          23.2065   12.0217   41.6973 C.ar    1  UNL1        0.0745
      5 C          22.3622    8.3836   40.5980 C.ar    1  UNL1        0.1287
      6 C          23.2141   10.2641   39.3376 C.ar    1  UNL1        0.0369
      7 C          23.2109   12.8590   42.8304 C.ar    1  UNL1        0.1283
      8 C          23.6207   12.5453   40.4652 C.ar    1  UNL1        0.0366
      9 O          21.9162    7.8038   41.7524 O.3     1  UNL1       -0.5060
     10 C          22.3922    7.5970   39.4484 C.ar    1  UNL1       -0.0141
     11 C          23.6507   11.6932   39.2338 C.2     1  UNL1        0.1947
     12 C          23.2448    9.4593   38.1933 C.ar    1  UNL1       -0.0446
     13 O          22.8361   12.4054   44.0635 O.3     1  UNL1       -0.5060
     14 C          23.6070   14.1902   42.7242 C.ar    1  UNL1       -0.0194
     15 C          24.0171   13.8848   40.3749 C.ar    1  UNL1       -0.0500
     16 C          22.8374    8.1283   38.2413 C.ar    1  UNL1       -0.0180
     17 O          24.0219   12.1531   38.1709 O.2     1  UNL1       -0.2866
     18 C          24.0072   14.7046   41.4976 C.ar    1  UNL1       -0.0576
     19 C          22.8917    7.2665   36.9909 C.3     1  UNL1        0.0694
     20 O          22.6405    8.0583   35.8296 O.3     1  UNL1       -0.3904
     21 H          21.6974    6.8549   41.5578 H       1  UNL1        0.2922
     22 H          22.0686    6.5595   39.4988 H       1  UNL1        0.0658
     23 H          23.5890    9.8692   37.2456 H       1  UNL1        0.0628
     24 H          22.6127   11.4425   43.9818 H       1  UNL1        0.2922
     25 H          23.6043   14.8313   43.6030 H       1  UNL1        0.0654
     26 H          24.3367   14.3030   39.4229 H       1  UNL1        0.0625
     27 H          24.3144   15.7446   41.4165 H       1  UNL1        0.0619
     28 H          22.1500    6.4643   37.0402 H       1  UNL1        0.0607
     29 H          23.8802    6.8078   36.8981 H       1  UNL1        0.0607
     30 H          21.7625    8.4711   35.9171 H       1  UNL1        0.2098
@<TRIPOS>BOND
     1     1     2    2
     2     2     3    1
     3     2     4    1
     4     3     5   ar
     5     3     6   ar
     6     4     7   ar
     7     4     8   ar
     8     5     9    1
     9     5    10   ar
    10     6    11    1
    11     6    12   ar
    12     7    13    1
    13     7    14   ar
    14     8    15   ar
    15    10    16   ar
    16    11    17    2
    17    14    18   ar
    18    16    19    1
    19    19    20    1
    20     8    11    1
    21    12    16   ar
    22    15    18   ar
    23     9    21    1
    24    10    22    1
    25    12    23    1
    26    13    24    1
    27    14    25    1
    28    15    26    1
    29    18    27    1
    30    19    28    1
    31    19    29    1
    32    20    30    1
@<TRIPOS>SUBSTRUCTURE
     1 UNL1        1 TEMP              0 ****  ****    0 ROOT


##########                                Name:                  84
##########                DOCK_Rotatable_Bonds:                   4
##########                         Heavy_Atoms:                  20
##########                    Molecular_Weight:             270.241
##########                       Formal_Charge:        -2.98023e-08
##########                     HBond_Acceptors:                   5
##########                        HBond_Donors:                   3
##########                    Continuous_Score:          -32.789448
##########               Continuous_vdw_energy:          -30.500301
##########                Continuous_es_energy:           -2.289147
##########           Internal_energy_repulsive:           12.079107

@<TRIPOS>MOLECULE
84
 30 32 1 0 0
SMALL
GASTEIGER


@<TRIPOS>ATOM
      1 O          22.4245   10.1284   42.9378 O.2     1  UNL1       -0.2864
      2 C          22.7753   10.6142   41.8778 C.2     1  UNL1        0.2015
      3 C          22.7960    9.7782   40.6246 C.ar    1  UNL1        0.0745
      4 C          23.1934   12.0594   41.8012 C.ar    1  UNL1        0.0745
      5 C          22.4025    8.4264   40.6466 C.ar    1  UNL1        0.1287
      6 C          23.2138   10.3418   39.4122 C.ar    1  UNL1        0.0369
      7 C          23.1916   12.8776   42.9481 C.ar    1  UNL1        0.1283
      8 C          23.5900   12.6105   40.5752 C.ar    1  UNL1        0.0366
      9 O          21.9744    7.8199   41.7940 O.3     1  UNL1       -0.5060
     10 C          22.4376    7.6597   39.4837 C.ar    1  UNL1       -0.0141
     11 C          23.6257   11.7796   39.3295 C.2     1  UNL1        0.1947
     12 C          23.2499    9.5569   38.2543 C.ar    1  UNL1       -0.0446
     13 O          22.8333   12.3971   44.1760 O.3     1  UNL1       -0.5060
     14 C          23.5646   14.2169   42.8618 C.ar    1  UNL1       -0.0194
     15 C          23.9632   13.9578   40.5049 C.ar    1  UNL1       -0.0500
     16 C          22.8653    8.2186   38.2828 C.ar    1  UNL1       -0.0180
     17 O          23.9816   12.2634   38.2720 O.2     1  UNL1       -0.2866
     18 C          23.9475   14.7585   41.6412 C.ar    1  UNL1       -0.0576
     19 C          22.9253    7.3789   37.0177 C.3     1  UNL1        0.0694
     20 O          22.5205    8.1520   35.8876 O.3     1  UNL1       -0.3904
     21 H          21.6782    6.8999   41.5660 H       1  UNL1        0.2922
     22 H          22.1318    6.6163   39.5188 H       1  UNL1        0.0658
     23 H          23.5806    9.9882   37.3115 H       1  UNL1        0.0628
     24 H          22.7152   11.4154   44.0992 H       1  UNL1        0.2922
     25 H          23.5574   14.8431   43.7512 H       1  UNL1        0.0654
     26 H          24.2691   14.3971   39.5579 H       1  UNL1        0.0625
     27 H          24.2366   15.8047   41.5756 H       1  UNL1        0.0619
     28 H          22.2734    6.5047   37.1011 H       1  UNL1        0.0607
     29 H          23.9470    7.0244   36.8548 H       1  UNL1        0.0607
     30 H          23.1478    8.8883   35.7721 H       1  UNL1        0.2098
@<TRIPOS>BOND
     1     1     2    2
     2     2     3    1
     3     2     4    1
     4     3     5   ar
     5     3     6   ar
     6     4     7   ar
     7     4     8   ar
     8     5     9    1
     9     5    10   ar
    10     6    11    1
    11     6    12   ar
    12     7    13    1
    13     7    14   ar
    14     8    15   ar
    15    10    16   ar
    16    11    17    2
    17    14    18   ar
    18    16    19    1
    19    19    20    1
    20     8    11    1
    21    12    16   ar
    22    15    18   ar
    23     9    21    1
    24    10    22    1
    25    12    23    1
    26    13    24    1
    27    14    25    1
    28    15    26    1
    29    18    27    1
    30    19    28    1
    31    19    29    1
    32    20    30    1
@<TRIPOS>SUBSTRUCTURE
     1 UNL1        1 TEMP              0 ****  ****    0 ROOT


##########                                Name:                  86
##########                DOCK_Rotatable_Bonds:                  12
##########                         Heavy_Atoms:                  22
##########                    Molecular_Weight:             305.417
##########                       Formal_Charge:         1.30385e-07
##########                     HBond_Acceptors:                   4
##########                        HBond_Donors:                   2
##########                    Continuous_Score:          -38.941483
##########               Continuous_vdw_energy:          -38.141727
##########                Continuous_es_energy:           -0.799756
##########           Internal_energy_repulsive:            8.025169

@<TRIPOS>MOLECULE
86
 49 49 1 0 0
SMALL
GASTEIGER


@<TRIPOS>ATOM
      1 O          21.3750   14.3262   45.1286 O.2     1  UNL1       -0.2758
      2 C          21.2123   14.6006   43.9562 C.2     1  UNL1        0.2133
      3 N          21.8233   13.9225   42.9590 N.am    1  UNL1       -0.3112
      4 C          20.2692   15.6995   43.5063 C.3     1  UNL1        0.0240
      5 C          22.7733   12.8223   43.1572 C.3     1  UNL1        0.0369
      6 C          19.0671   15.8891   44.4638 C.3     1  UNL1       -0.0445
      7 C          23.0199   12.0526   41.8736 C.ar    1  UNL1       -0.0266
      8 C          18.0589   14.7140   44.4595 C.3     1  UNL1       -0.0492
      9 C          22.6996   10.6948   41.7995 C.ar    1  UNL1       -0.0116
     10 C          23.5786   12.6955   40.7672 C.ar    1  UNL1       -0.0534
     11 C          16.6826   15.0988   45.0423 C.3     1  UNL1       -0.0347
     12 C          22.9462    9.9778   40.6233 C.ar    1  UNL1        0.1616
     13 C          23.8236   11.9850   39.5942 C.ar    1  UNL1       -0.0162
     14 C          15.6629   14.0100   44.7944 C.2     1  UNL1       -0.0877
     15 O          22.6612    8.6262   40.4886 O.3     1  UNL1       -0.4914
     16 C          23.5100   10.6303   39.5265 C.ar    1  UNL1        0.1585
     17 C          15.0618   13.8278   43.6255 C.2     1  UNL1       -0.0854
     18 C          21.7954    7.9055   41.3959 C.3     1  UNL1        0.0790
     19 O          23.7518    9.9190   38.3930 O.3     1  UNL1       -0.5033
     20 C          14.0392   12.7432   43.3608 C.3     1  UNL1       -0.0286
     21 C          14.2854   11.5366   44.2884 C.3     1  UNL1       -0.0592
     22 C          12.6135   13.2963   43.5566 C.3     1  UNL1       -0.0592
     23 H          21.6279   14.1906   42.0067 H       1  UNL1        0.1490
     24 H          19.8919   15.4575   42.5101 H       1  UNL1        0.0358
     25 H          20.8239   16.6355   43.4059 H       1  UNL1        0.0358
     26 H          22.4008   12.1460   43.9318 H       1  UNL1        0.0512
     27 H          23.7106   13.2507   43.5229 H       1  UNL1        0.0512
     28 H          18.5363   16.8037   44.1882 H       1  UNL1        0.0270
     29 H          19.4426   16.0385   45.4789 H       1  UNL1        0.0270
     30 H          18.4703   13.8670   45.0143 H       1  UNL1        0.0268
     31 H          17.9236   14.3789   43.4282 H       1  UNL1        0.0268
     32 H          22.2619   10.2083   42.6669 H       1  UNL1        0.0658
     33 H          23.8291   13.7521   40.8169 H       1  UNL1        0.0622
     34 H          16.3379   16.0305   44.5872 H       1  UNL1        0.0307
     35 H          16.7702   15.2763   46.1159 H       1  UNL1        0.0307
     36 H          24.2632   12.4864   38.7351 H       1  UNL1        0.0655
     37 H          15.4394   13.3596   45.6375 H       1  UNL1        0.0569
     38 H          15.2958   14.4780   42.7845 H       1  UNL1        0.0572
     39 H          21.7356    6.8630   41.0720 H       1  UNL1        0.0660
     40 H          20.7961    8.3496   41.3788 H       1  UNL1        0.0660
     41 H          22.2095    7.9484   42.4071 H       1  UNL1        0.0660
     42 H          23.1557    9.1423   38.4345 H       1  UNL1        0.2923
     43 H          14.1295   12.3999   42.3268 H       1  UNL1        0.0338
     44 H          14.1951   11.8282   45.3378 H       1  UNL1        0.0235
     45 H          15.2880   11.1325   44.1293 H       1  UNL1        0.0235
     46 H          13.5625   10.7427   44.0874 H       1  UNL1        0.0235
     47 H          12.4671   13.6412   44.5831 H       1  UNL1        0.0235
     48 H          11.8684   12.5268   43.3412 H       1  UNL1        0.0235
     49 H          12.4364   14.1387   42.8834 H       1  UNL1        0.0235
@<TRIPOS>BOND
     1     1     2    2
     2     2     3   am
     3     2     4    1
     4     3     5    1
     5     4     6    1
     6     5     7    1
     7     6     8    1
     8     7     9   ar
     9     7    10   ar
    10     8    11    1
    11     9    12   ar
    12    10    13   ar
    13    11    14    1
    14    12    15    1
    15    12    16   ar
    16    14    17    2
    17    15    18    1
    18    16    19    1
    19    17    20    1
    20    20    21    1
    21    20    22    1
    22    13    16   ar
    23     3    23    1
    24     4    24    1
    25     4    25    1
    26     5    26    1
    27     5    27    1
    28     6    28    1
    29     6    29    1
    30     8    30    1
    31     8    31    1
    32     9    32    1
    33    10    33    1
    34    11    34    1
    35    11    35    1
    36    13    36    1
    37    14    37    1
    38    17    38    1
    39    18    39    1
    40    18    40    1
    41    18    41    1
    42    19    42    1
    43    20    43    1
    44    21    44    1
    45    21    45    1
    46    21    46    1
    47    22    47    1
    48    22    48    1
    49    22    49    1
@<TRIPOS>SUBSTRUCTURE
     1 UNL1        1 TEMP              0 ****  ****    0 ROOT


##########                                Name:                  86
##########                DOCK_Rotatable_Bonds:                  12
##########                         Heavy_Atoms:                  22
##########                    Molecular_Weight:             305.417
##########                       Formal_Charge:         1.30385e-07
##########                     HBond_Acceptors:                   4
##########                        HBond_Donors:                   2
##########                    Continuous_Score:          -38.185459
##########               Continuous_vdw_energy:          -37.407326
##########                Continuous_es_energy:           -0.778135
##########           Internal_energy_repulsive:            6.370949

@<TRIPOS>MOLECULE
86
 49 49 1 0 0
SMALL
GASTEIGER


@<TRIPOS>ATOM
      1 O          21.2716   14.3811   44.9327 O.2     1  UNL1       -0.2758
      2 C          21.0662   14.6170   43.7587 C.2     1  UNL1        0.2133
      3 N          21.7105   13.9681   42.7629 N.am    1  UNL1       -0.3112
      4 C          20.0311   15.6287   43.3062 C.3     1  UNL1        0.0240
      5 C          22.7479   12.9506   42.9637 C.3     1  UNL1        0.0369
      6 C          18.8948   15.8286   44.3389 C.3     1  UNL1       -0.0445
      7 C          22.9938   12.1406   41.7051 C.ar    1  UNL1       -0.0266
      8 C          17.8027   14.7317   44.3034 C.3     1  UNL1       -0.0492
      9 C          22.6885   10.7776   41.6791 C.ar    1  UNL1       -0.0116
     10 C          23.5373   12.7518   40.5734 C.ar    1  UNL1       -0.0534
     11 C          16.5098   15.1447   45.0386 C.3     1  UNL1       -0.0347
     12 C          22.9347   10.0239   40.5259 C.ar    1  UNL1        0.1616
     13 C          23.7818   12.0048   39.4231 C.ar    1  UNL1       -0.0162
     14 C          15.4630   14.0570   44.9512 C.2     1  UNL1       -0.0877
     15 O          22.6640    8.6656   40.4391 O.3     1  UNL1       -0.4914
     16 C          23.4830   10.6452   39.4036 C.ar    1  UNL1        0.1585
     17 C          14.6565   13.9046   43.9085 C.2     1  UNL1       -0.0854
     18 C          21.8333    7.9613   41.3911 C.3     1  UNL1        0.0790
     19 O          23.7247    9.8987   38.2929 O.3     1  UNL1       -0.5033
     20 C          13.6037   12.8215   43.8053 C.3     1  UNL1       -0.0286
     21 C          13.0312   12.7651   42.3747 C.3     1  UNL1       -0.0592
     22 C          14.2015   11.4578   44.2047 C.3     1  UNL1       -0.0592
     23 H          21.4771   14.1999   41.8097 H       1  UNL1        0.1490
     24 H          19.5952   15.2924   42.3626 H       1  UNL1        0.0358
     25 H          20.5226   16.5815   43.0954 H       1  UNL1        0.0358
     26 H          22.4618   12.2865   43.7843 H       1  UNL1        0.0512
     27 H          23.6659   13.4626   43.2648 H       1  UNL1        0.0512
     28 H          18.4210   16.7969   44.1602 H       1  UNL1        0.0270
     29 H          19.3296   15.8725   45.3404 H       1  UNL1        0.0270
     30 H          18.1905   13.8044   44.7326 H       1  UNL1        0.0268
     31 H          17.5613   14.5184   43.2592 H       1  UNL1        0.0268
     32 H          22.2626   10.3159   42.5658 H       1  UNL1        0.0658
     33 H          23.7761   13.8122   40.5854 H       1  UNL1        0.0622
     34 H          16.1157   16.0649   44.6006 H       1  UNL1        0.0307
     35 H          16.7294   15.3536   46.0873 H       1  UNL1        0.0307
     36 H          24.2094   12.4817   38.5442 H       1  UNL1        0.0655
     37 H          15.3997   13.3811   45.8015 H       1  UNL1        0.0569
     38 H          14.7306   14.5801   43.0582 H       1  UNL1        0.0572
     39 H          21.7784    6.9090   41.0998 H       1  UNL1        0.0660
     40 H          20.8282    8.3923   41.3890 H       1  UNL1        0.0660
     41 H          22.2745    8.0394   42.3887 H       1  UNL1        0.0660
     42 H          23.2131    9.0714   38.4123 H       1  UNL1        0.2923
     43 H          12.7816   13.0439   44.4908 H       1  UNL1        0.0338
     44 H          13.8166   12.5339   41.6506 H       1  UNL1        0.0235
     45 H          12.5868   13.7260   42.1046 H       1  UNL1        0.0235
     46 H          12.2565   11.9988   42.3001 H       1  UNL1        0.0235
     47 H          15.0220   11.1818   43.5377 H       1  UNL1        0.0235
     48 H          13.4408   10.6748   44.1588 H       1  UNL1        0.0235
     49 H          14.5883   11.4964   45.2261 H       1  UNL1        0.0235
@<TRIPOS>BOND
     1     1     2    2
     2     2     3   am
     3     2     4    1
     4     3     5    1
     5     4     6    1
     6     5     7    1
     7     6     8    1
     8     7     9   ar
     9     7    10   ar
    10     8    11    1
    11     9    12   ar
    12    10    13   ar
    13    11    14    1
    14    12    15    1
    15    12    16   ar
    16    14    17    2
    17    15    18    1
    18    16    19    1
    19    17    20    1
    20    20    21    1
    21    20    22    1
    22    13    16   ar
    23     3    23    1
    24     4    24    1
    25     4    25    1
    26     5    26    1
    27     5    27    1
    28     6    28    1
    29     6    29    1
    30     8    30    1
    31     8    31    1
    32     9    32    1
    33    10    33    1
    34    11    34    1
    35    11    35    1
    36    13    36    1
    37    14    37    1
    38    17    38    1
    39    18    39    1
    40    18    40    1
    41    18    41    1
    42    19    42    1
    43    20    43    1
    44    21    44    1
    45    21    45    1
    46    21    46    1
    47    22    47    1
    48    22    48    1
    49    22    49    1
@<TRIPOS>SUBSTRUCTURE
     1 UNL1        1 TEMP              0 ****  ****    0 ROOT


##########                                Name:                  86
##########                DOCK_Rotatable_Bonds:                  12
##########                         Heavy_Atoms:                  22
##########                    Molecular_Weight:             305.417
##########                       Formal_Charge:         1.30385e-07
##########                     HBond_Acceptors:                   4
##########                        HBond_Donors:                   2
##########                    Continuous_Score:          -38.591778
##########               Continuous_vdw_energy:          -37.973507
##########                Continuous_es_energy:           -0.618269
##########           Internal_energy_repulsive:            5.691129

@<TRIPOS>MOLECULE
86
 49 49 1 0 0
SMALL
GASTEIGER


@<TRIPOS>ATOM
      1 O          22.0354   14.9657   45.4755 O.2     1  UNL1       -0.2758
      2 C          21.8017   15.1532   44.2979 C.2     1  UNL1        0.2133
      3 N          22.1205   14.2533   43.3409 N.am    1  UNL1       -0.3112
      4 C          21.0862   16.3954   43.8035 C.3     1  UNL1        0.0240
      5 C          22.8126   12.9833   43.5861 C.3     1  UNL1        0.0369
      6 C          19.7656   16.6709   44.5636 C.3     1  UNL1       -0.0445
      7 C          22.9907   12.1829   42.3100 C.ar    1  UNL1       -0.0266
      8 C          18.8385   15.4379   44.6957 C.3     1  UNL1       -0.0492
      9 C          22.8689   10.7915   42.3339 C.ar    1  UNL1       -0.0116
     10 C          23.2888   12.8332   41.1108 C.ar    1  UNL1       -0.0534
     11 C          17.4112   15.8035   45.1550 C.3     1  UNL1       -0.0347
     12 C          23.0541   10.0495   41.1619 C.ar    1  UNL1        0.1616
     13 C          23.4717   12.0975   39.9419 C.ar    1  UNL1       -0.0162
     14 C          16.5132   14.5868   45.1621 C.2     1  UNL1       -0.0877
     15 O          22.9576    8.6656   41.1207 O.3     1  UNL1       -0.4914
     16 C          23.3570   10.7105   39.9712 C.ar    1  UNL1        0.1585
     17 C          15.9180   14.1150   44.0740 C.2     1  UNL1       -0.0854
     18 C          21.7262    7.9501   41.3734 C.3     1  UNL1        0.0790
     19 O          23.5425    9.9760   38.8419 O.3     1  UNL1       -0.5033
     20 C          15.0164   12.8988   44.0637 C.3     1  UNL1       -0.0286
     21 C          13.9569   13.0077   45.1786 C.3     1  UNL1       -0.0592
     22 C          14.3409   12.7481   42.6860 C.3     1  UNL1       -0.0592
     23 H          21.8799   14.4645   42.3847 H       1  UNL1        0.1490
     24 H          20.8635   16.2773   42.7405 H       1  UNL1        0.0358
     25 H          21.7551   17.2557   43.8835 H       1  UNL1        0.0358
     26 H          22.2567   12.3943   44.3210 H       1  UNL1        0.0512
     27 H          23.7881   13.2124   44.0238 H       1  UNL1        0.0512
     28 H          19.2187   17.4633   44.0465 H       1  UNL1        0.0270
     29 H          20.0028   17.0522   45.5597 H       1  UNL1        0.0270
     30 H          19.2752   14.7149   45.3895 H       1  UNL1        0.0268
     31 H          18.7798   14.9442   43.7225 H       1  UNL1        0.0268
     32 H          22.6331   10.2991   43.2733 H       1  UNL1        0.0658
     33 H          23.3836   13.9157   41.0840 H       1  UNL1        0.0622
     34 H          16.9928   16.5608   44.4877 H       1  UNL1        0.0307
     35 H          17.4429   16.2369   46.1566 H       1  UNL1        0.0307
     36 H          23.7084   12.6055   39.0099 H       1  UNL1        0.0655
     37 H          16.3751   14.0967   46.1234 H       1  UNL1        0.0569
     38 H          16.0666   14.6065   43.1142 H       1  UNL1        0.0572
     39 H          21.9165    6.8775   41.2797 H       1  UNL1        0.0660
     40 H          20.9712    8.2508   40.6417 H       1  UNL1        0.0660
     41 H          21.3775    8.1698   42.3865 H       1  UNL1        0.0660
     42 H          23.4182    9.0415   39.1094 H       1  UNL1        0.2923
     43 H          15.6116   12.0006   44.2483 H       1  UNL1        0.0338
     44 H          13.3268   13.8886   45.0314 H       1  UNL1        0.0235
     45 H          14.4395   13.0897   46.1554 H       1  UNL1        0.0235
     46 H          13.3163   12.1230   45.1886 H       1  UNL1        0.0235
     47 H          13.7200   13.6184   42.4595 H       1  UNL1        0.0235
     48 H          13.7090   11.8571   42.6617 H       1  UNL1        0.0235
     49 H          15.0952   12.6515   41.9011 H       1  UNL1        0.0235
@<TRIPOS>BOND
     1     1     2    2
     2     2     3   am
     3     2     4    1
     4     3     5    1
     5     4     6    1
     6     5     7    1
     7     6     8    1
     8     7     9   ar
     9     7    10   ar
    10     8    11    1
    11     9    12   ar
    12    10    13   ar
    13    11    14    1
    14    12    15    1
    15    12    16   ar
    16    14    17    2
    17    15    18    1
    18    16    19    1
    19    17    20    1
    20    20    21    1
    21    20    22    1
    22    13    16   ar
    23     3    23    1
    24     4    24    1
    25     4    25    1
    26     5    26    1
    27     5    27    1
    28     6    28    1
    29     6    29    1
    30     8    30    1
    31     8    31    1
    32     9    32    1
    33    10    33    1
    34    11    34    1
    35    11    35    1
    36    13    36    1
    37    14    37    1
    38    17    38    1
    39    18    39    1
    40    18    40    1
    41    18    41    1
    42    19    42    1
    43    20    43    1
    44    21    44    1
    45    21    45    1
    46    21    46    1
    47    22    47    1
    48    22    48    1
    49    22    49    1
@<TRIPOS>SUBSTRUCTURE
     1 UNL1        1 TEMP              0 ****  ****    0 ROOT


##########                                Name:                  88
##########                DOCK_Rotatable_Bonds:                   1
##########                         Heavy_Atoms:                  11
##########                    Molecular_Weight:             152.236
##########                       Formal_Charge:         0.000200033
##########                     HBond_Acceptors:                   1
##########                        HBond_Donors:                   0
##########                    Continuous_Score:          -22.412102
##########               Continuous_vdw_energy:          -22.563704
##########                Continuous_es_energy:            0.151603
##########           Internal_energy_repulsive:           12.421852

@<TRIPOS>MOLECULE
88
 27 28 1 0 0
SMALL
GASTEIGER


@<TRIPOS>ATOM
      1 O           9.3411   13.3124   44.7999 O.2     1  UNL1       -0.2971
      2 C          10.3940   13.3123   44.1934 C.2     1  UNL1        0.1370
      3 C          10.6798   12.3807   43.0361 C.3     1  UNL1        0.0181
      4 C          11.6625   13.9176   44.7431 C.3     1  UNL1        0.0123
      5 C          12.2185   12.2769   42.9408 C.3     1  UNL1       -0.0250
      6 C          10.0348   12.9179   41.7405 C.3     1  UNL1       -0.0554
      7 C          12.8178   13.2013   44.0150 C.3     1  UNL1       -0.0165
      8 C          13.0162   13.5084   42.5415 C.3     1  UNL1       -0.0425
      9 C          14.0840   12.7418   44.7863 C.3     1  UNL1       -0.0404
     10 C          14.5337   11.3605   44.2642 C.3     1  UNL1       -0.0621
     11 C          15.2369   13.7647   44.6881 C.3     1  UNL1       -0.0621
     12 H          10.2733   11.3914   43.2610 H       1  UNL1        0.0377
     13 H          11.7092   13.7692   45.8229 H       1  UNL1        0.0347
     14 H          11.6880   14.9902   44.5352 H       1  UNL1        0.0347
     15 H          12.7032   11.3030   42.8476 H       1  UNL1        0.0313
     16 H          10.3170   13.9574   41.5595 H       1  UNL1        0.0236
     17 H           8.9457   12.8800   41.8182 H       1  UNL1        0.0236
     18 H          10.3390   12.3209   40.8782 H       1  UNL1        0.0236
     19 H          12.4724   14.3626   42.1545 H       1  UNL1        0.0274
     20 H          14.0036   13.3121   42.1282 H       1  UNL1        0.0274
     21 H          13.8351   12.6320   45.8445 H       1  UNL1        0.0301
     22 H          14.8348   11.4162   43.2154 H       1  UNL1        0.0233
     23 H          13.7189   10.6371   44.3482 H       1  UNL1        0.0233
     24 H          15.3799   10.9861   44.8446 H       1  UNL1        0.0233
     25 H          15.5686   13.8990   43.6567 H       1  UNL1        0.0233
     26 H          16.0935   13.4246   45.2737 H       1  UNL1        0.0233
     27 H          14.9242   14.7351   45.0801 H       1  UNL1        0.0233
@<TRIPOS>BOND
     1     1     2    2
     2     2     3    1
     3     2     4    1
     4     3     5    1
     5     3     6    1
     6     4     7    1
     7     5     8    1
     8     7     9    1
     9     9    10    1
    10     9    11    1
    11     5     7    1
    12     7     8    1
    13     3    12    1
    14     4    13    1
    15     4    14    1
    16     5    15    1
    17     6    16    1
    18     6    17    1
    19     6    18    1
    20     8    19    1
    21     8    20    1
    22     9    21    1
    23    10    22    1
    24    10    23    1
    25    10    24    1
    26    11    25    1
    27    11    26    1
    28    11    27    1
@<TRIPOS>SUBSTRUCTURE
     1 UNL1        1 TEMP              0 ****  ****    0 ROOT


##########                                Name:                  88
##########                DOCK_Rotatable_Bonds:                   1
##########                         Heavy_Atoms:                  11
##########                    Molecular_Weight:             152.236
##########                       Formal_Charge:         0.000200033
##########                     HBond_Acceptors:                   1
##########                        HBond_Donors:                   0
##########                    Continuous_Score:          -22.448626
##########               Continuous_vdw_energy:          -21.038460
##########                Continuous_es_energy:           -1.410165
##########           Internal_energy_repulsive:           16.377106

@<TRIPOS>MOLECULE
88
 27 28 1 0 0
SMALL
GASTEIGER


@<TRIPOS>ATOM
      1 O          11.0443   11.5880   40.8120 O.2     1  UNL1       -0.2971
      2 C          11.1358   12.2046   41.8550 C.2     1  UNL1        0.1370
      3 C          11.0799   13.7147   41.9288 C.3     1  UNL1        0.0181
      4 C          11.7110   11.6097   43.1171 C.3     1  UNL1        0.0123
      5 C          11.7898   14.1049   43.2445 C.3     1  UNL1       -0.0250
      6 C           9.6164   14.2026   41.8709 C.3     1  UNL1       -0.0554
      7 C          12.2042   12.8055   43.9566 C.3     1  UNL1       -0.0165
      8 C          11.1531   13.7140   44.5687 C.3     1  UNL1       -0.0425
      9 C          13.5664   12.7517   44.6984 C.3     1  UNL1       -0.0404
     10 C          14.5134   11.7752   43.9691 C.3     1  UNL1       -0.0621
     11 C          14.2180   14.1454   44.8347 C.3     1  UNL1       -0.0621
     12 H          11.6371   14.1375   41.0889 H       1  UNL1        0.0377
     13 H          12.5234   10.9247   42.8698 H       1  UNL1        0.0347
     14 H          10.9388   11.0571   43.6579 H       1  UNL1        0.0347
     15 H          12.5420   14.8965   43.2542 H       1  UNL1        0.0313
     16 H           9.0000   13.6944   42.6154 H       1  UNL1        0.0236
     17 H           9.1879   13.9926   40.8881 H       1  UNL1        0.0236
     18 H           9.5579   15.2787   42.0485 H       1  UNL1        0.0236
     19 H          10.1344   13.3436   44.5530 H       1  UNL1        0.0274
     20 H          11.4586   14.3079   45.4278 H       1  UNL1        0.0274
     21 H          13.4060   12.3671   45.7085 H       1  UNL1        0.0301
     22 H          14.7435   12.1301   42.9616 H       1  UNL1        0.0233
     23 H          14.0535   10.7873   43.8872 H       1  UNL1        0.0233
     24 H          15.4521   11.6671   44.5171 H       1  UNL1        0.0233
     25 H          14.4455   14.5801   43.8595 H       1  UNL1        0.0233
     26 H          15.1528   14.0713   45.3943 H       1  UNL1        0.0233
     27 H          13.5563   14.8283   45.3720 H       1  UNL1        0.0233
@<TRIPOS>BOND
     1     1     2    2
     2     2     3    1
     3     2     4    1
     4     3     5    1
     5     3     6    1
     6     4     7    1
     7     5     8    1
     8     7     9    1
     9     9    10    1
    10     9    11    1
    11     5     7    1
    12     7     8    1
    13     3    12    1
    14     4    13    1
    15     4    14    1
    16     5    15    1
    17     6    16    1
    18     6    17    1
    19     6    18    1
    20     8    19    1
    21     8    20    1
    22     9    21    1
    23    10    22    1
    24    10    23    1
    25    10    24    1
    26    11    25    1
    27    11    26    1
    28    11    27    1
@<TRIPOS>SUBSTRUCTURE
     1 UNL1        1 TEMP              0 ****  ****    0 ROOT


##########                                Name:                  88
##########                DOCK_Rotatable_Bonds:                   1
##########                         Heavy_Atoms:                  11
##########                    Molecular_Weight:             152.236
##########                       Formal_Charge:         0.000200033
##########                     HBond_Acceptors:                   1
##########                        HBond_Donors:                   0
##########                    Continuous_Score:          -21.251020
##########               Continuous_vdw_energy:          -19.969255
##########                Continuous_es_energy:           -1.281765
##########           Internal_energy_repulsive:           12.823105

@<TRIPOS>MOLECULE
88
 27 28 1 0 0
SMALL
GASTEIGER


@<TRIPOS>ATOM
      1 O          11.4678   10.7293   42.8153 O.2     1  UNL1       -0.2971
      2 C          12.0183   11.6954   43.3054 C.2     1  UNL1        0.1370
      3 C          11.6613   13.1204   42.9437 C.3     1  UNL1        0.0181
      4 C          13.3572   11.6190   43.9977 C.3     1  UNL1        0.0123
      5 C          12.9013   13.9735   43.2930 C.3     1  UNL1       -0.0250
      6 C          10.3940   13.5674   43.7034 C.3     1  UNL1       -0.0554
      7 C          13.9540   13.0382   43.9127 C.3     1  UNL1       -0.0165
      8 C          13.3043   14.1242   44.7514 C.3     1  UNL1       -0.0425
      9 C          15.4523   13.2544   43.5695 C.3     1  UNL1       -0.0404
     10 C          15.6826   12.9823   42.0677 C.3     1  UNL1       -0.0621
     11 C          15.9456   14.6675   43.9506 C.3     1  UNL1       -0.0621
     12 H          11.4812   13.1847   41.8675 H       1  UNL1        0.0377
     13 H          13.9912   10.8816   43.5030 H       1  UNL1        0.0347
     14 H          13.2243   11.3233   45.0413 H       1  UNL1        0.0347
     15 H          13.2930   14.7000   42.5781 H       1  UNL1        0.0313
     16 H          10.4918   13.3885   44.7763 H       1  UNL1        0.0236
     17 H           9.5261   13.0041   43.3525 H       1  UNL1        0.0236
     18 H          10.2005   14.6306   43.5455 H       1  UNL1        0.0236
     19 H          12.6056   13.7880   45.5090 H       1  UNL1        0.0274
     20 H          13.9128   14.9966   44.9807 H       1  UNL1        0.0274
     21 H          16.0531   12.5366   44.1332 H       1  UNL1        0.0301
     22 H          15.1354   13.6987   41.4505 H       1  UNL1        0.0233
     23 H          15.3444   11.9766   41.8059 H       1  UNL1        0.0233
     24 H          16.7439   13.0574   41.8208 H       1  UNL1        0.0233
     25 H          15.4147   15.4424   43.3945 H       1  UNL1        0.0233
     26 H          17.0105   14.7671   43.7300 H       1  UNL1        0.0233
     27 H          15.8038   14.8492   45.0183 H       1  UNL1        0.0233
@<TRIPOS>BOND
     1     1     2    2
     2     2     3    1
     3     2     4    1
     4     3     5    1
     5     3     6    1
     6     4     7    1
     7     5     8    1
     8     7     9    1
     9     9    10    1
    10     9    11    1
    11     5     7    1
    12     7     8    1
    13     3    12    1
    14     4    13    1
    15     4    14    1
    16     5    15    1
    17     6    16    1
    18     6    17    1
    19     6    18    1
    20     8    19    1
    21     8    20    1
    22     9    21    1
    23    10    22    1
    24    10    23    1
    25    10    24    1
    26    11    25    1
    27    11    26    1
    28    11    27    1
@<TRIPOS>SUBSTRUCTURE
     1 UNL1        1 TEMP              0 ****  ****    0 ROOT


##########                                Name:                  89
##########                DOCK_Rotatable_Bonds:                   1
##########                         Heavy_Atoms:                  11
##########                    Molecular_Weight:             154.252
##########                       Formal_Charge:        -4.09782e-08
##########                     HBond_Acceptors:                   1
##########                        HBond_Donors:                   1
##########                    Continuous_Score:          -18.088289
##########               Continuous_vdw_energy:          -17.086334
##########                Continuous_es_energy:           -1.001955
##########           Internal_energy_repulsive:            9.738752

@<TRIPOS>MOLECULE
89
 29 30 1 0 0
SMALL
GASTEIGER


@<TRIPOS>ATOM
      1 O          12.0392   11.5388   42.7094 O.3     1  UNL1       -0.3912
      2 C          13.0977   12.4919   42.5641 C.3     1  UNL1        0.0614
      3 C          12.8000   13.8658   43.2443 C.3     1  UNL1       -0.0007
      4 C          14.3879   12.0298   43.2878 C.3     1  UNL1       -0.0230
      5 C          14.2271   14.4595   43.4398 C.3     1  UNL1       -0.0242
      6 C          12.3390   13.5928   44.7084 C.3     1  UNL1       -0.0445
      7 C          11.8108   14.7411   42.4440 C.3     1  UNL1       -0.0567
      8 C          14.6843   13.2167   44.2449 C.3     1  UNL1       -0.0329
      9 C          14.2996   15.7982   44.2407 C.3     1  UNL1       -0.0590
     10 C          15.0434   14.7049   42.1312 C.3     1  UNL1       -0.0590
     11 C          13.6447   13.1221   45.3936 C.3     1  UNL1       -0.0490
     12 H          11.8115   11.4753   43.6543 H       1  UNL1        0.2098
     13 H          13.2964   12.6298   41.4980 H       1  UNL1        0.0599
     14 H          15.2022   11.8876   42.5736 H       1  UNL1        0.0293
     15 H          14.2513   11.0906   43.8302 H       1  UNL1        0.0293
     16 H          11.5505   12.8406   44.7795 H       1  UNL1        0.0272
     17 H          11.9592   14.5005   45.1827 H       1  UNL1        0.0272
     18 H          12.1831   14.9252   41.4340 H       1  UNL1        0.0236
     19 H          11.6584   15.7046   42.9347 H       1  UNL1        0.0236
     20 H          10.8414   14.2440   42.3640 H       1  UNL1        0.0236
     21 H          15.7190   13.2470   44.5946 H       1  UNL1        0.0307
     22 H          13.8936   16.6199   43.6458 H       1  UNL1        0.0235
     23 H          15.3401   16.0402   44.4707 H       1  UNL1        0.0235
     24 H          13.7588   15.7902   45.1861 H       1  UNL1        0.0235
     25 H          14.6327   15.5543   41.5803 H       1  UNL1        0.0235
     26 H          15.0647   13.8594   41.4449 H       1  UNL1        0.0235
     27 H          16.0812   14.9420   42.3774 H       1  UNL1        0.0235
     28 H          13.5529   12.1048   45.7822 H       1  UNL1        0.0268
     29 H          13.9098   13.7785   46.2257 H       1  UNL1        0.0268
@<TRIPOS>BOND
     1     1     2    1
     2     2     3    1
     3     2     4    1
     4     3     5    1
     5     3     6    1
     6     3     7    1
     7     4     8    1
     8     5     9    1
     9     5    10    1
    10     6    11    1
    11     5     8    1
    12     8    11    1
    13     1    12    1
    14     2    13    1
    15     4    14    1
    16     4    15    1
    17     6    16    1
    18     6    17    1
    19     7    18    1
    20     7    19    1
    21     7    20    1
    22     8    21    1
    23     9    22    1
    24     9    23    1
    25     9    24    1
    26    10    25    1
    27    10    26    1
    28    10    27    1
    29    11    28    1
    30    11    29    1
@<TRIPOS>SUBSTRUCTURE
     1 UNL1        1 TEMP              0 ****  ****    0 ROOT


##########                                Name:                  89
##########                DOCK_Rotatable_Bonds:                   1
##########                         Heavy_Atoms:                  11
##########                    Molecular_Weight:             154.252
##########                       Formal_Charge:        -4.09782e-08
##########                     HBond_Acceptors:                   1
##########                        HBond_Donors:                   1
##########                    Continuous_Score:          -18.017509
##########               Continuous_vdw_energy:          -17.364349
##########                Continuous_es_energy:           -0.653159
##########           Internal_energy_repulsive:            9.739676

@<TRIPOS>MOLECULE
89
 29 30 1 0 0
SMALL
GASTEIGER


@<TRIPOS>ATOM
      1 O          12.3963   12.5492   42.7897 O.3     1  UNL1       -0.3912
      2 C          13.4684   13.4846   42.6299 C.3     1  UNL1        0.0614
      3 C          13.8177   14.2649   43.9368 C.3     1  UNL1       -0.0007
      4 C          14.8040   12.7734   42.2945 C.3     1  UNL1       -0.0230
      5 C          15.2788   14.7335   43.6673 C.3     1  UNL1       -0.0242
      6 C          13.9973   13.2285   45.0876 C.3     1  UNL1       -0.0445
      7 C          12.8038   15.3810   44.2707 C.3     1  UNL1       -0.0567
      8 C          15.7493   13.2780   43.4187 C.3     1  UNL1       -0.0329
      9 C          15.9953   15.4384   44.8625 C.3     1  UNL1       -0.0590
     10 C          15.4704   15.6817   42.4410 C.3     1  UNL1       -0.0590
     11 C          15.3275   12.5313   44.7125 C.3     1  UNL1       -0.0490
     12 H          12.6066   11.9676   43.5423 H       1  UNL1        0.2098
     13 H          13.2049   14.1810   41.8295 H       1  UNL1        0.0599
     14 H          15.1669   13.0767   41.3098 H       1  UNL1        0.0293
     15 H          14.7110   11.6842   42.2956 H       1  UNL1        0.0293
     16 H          13.1729   12.5158   45.1592 H       1  UNL1        0.0272
     17 H          14.0798   13.7213   46.0588 H       1  UNL1        0.0272
     18 H          12.7262   16.0950   43.4480 H       1  UNL1        0.0236
     19 H          13.1039   15.9236   45.1694 H       1  UNL1        0.0236
     20 H          11.8134   14.9551   44.4463 H       1  UNL1        0.0236
     21 H          16.8097   13.1690   43.1785 H       1  UNL1        0.0307
     22 H          15.5667   16.4289   45.0324 H       1  UNL1        0.0235
     23 H          17.0559   15.5724   44.6361 H       1  UNL1        0.0235
     24 H          15.9377   14.8988   45.8069 H       1  UNL1        0.0235
     25 H          15.0632   16.6719   42.6585 H       1  UNL1        0.0235
     26 H          14.9971   15.3363   41.5228 H       1  UNL1        0.0235
     27 H          16.5346   15.8027   42.2251 H       1  UNL1        0.0235
     28 H          15.1886   11.4608   44.5426 H       1  UNL1        0.0268
     29 H          16.0712   12.6536   45.5034 H       1  UNL1        0.0268
@<TRIPOS>BOND
     1     1     2    1
     2     2     3    1
     3     2     4    1
     4     3     5    1
     5     3     6    1
     6     3     7    1
     7     4     8    1
     8     5     9    1
     9     5    10    1
    10     6    11    1
    11     5     8    1
    12     8    11    1
    13     1    12    1
    14     2    13    1
    15     4    14    1
    16     4    15    1
    17     6    16    1
    18     6    17    1
    19     7    18    1
    20     7    19    1
    21     7    20    1
    22     8    21    1
    23     9    22    1
    24     9    23    1
    25     9    24    1
    26    10    25    1
    27    10    26    1
    28    10    27    1
    29    11    28    1
    30    11    29    1
@<TRIPOS>SUBSTRUCTURE
     1 UNL1        1 TEMP              0 ****  ****    0 ROOT


##########                                Name:                  89
##########                DOCK_Rotatable_Bonds:                   1
##########                         Heavy_Atoms:                  11
##########                    Molecular_Weight:             154.252
##########                       Formal_Charge:        -4.09782e-08
##########                     HBond_Acceptors:                   1
##########                        HBond_Donors:                   1
##########                    Continuous_Score:          -16.247171
##########               Continuous_vdw_energy:          -15.783336
##########                Continuous_es_energy:           -0.463836
##########           Internal_energy_repulsive:            9.738973

@<TRIPOS>MOLECULE
89
 29 30 1 0 0
SMALL
GASTEIGER


@<TRIPOS>ATOM
      1 O          11.2795   13.8272   42.9694 O.3     1  UNL1       -0.3912
      2 C          12.6790   13.9317   42.6855 C.3     1  UNL1        0.0614
      3 C          13.5331   14.3901   43.9101 C.3     1  UNL1       -0.0007
      4 C          13.2979   12.5535   42.3398 C.3     1  UNL1       -0.0230
      5 C          14.9578   13.8848   43.5334 C.3     1  UNL1       -0.0242
      6 C          13.1604   13.4888   45.1265 C.3     1  UNL1       -0.0445
      7 C          13.4116   15.9008   44.2074 C.3     1  UNL1       -0.0567
      8 C          14.4500   12.4292   43.3740 C.3     1  UNL1       -0.0329
      9 C          16.0514   14.0600   44.6343 C.3     1  UNL1       -0.0590
     10 C          15.5687   14.4914   42.2303 C.3     1  UNL1       -0.0590
     11 C          13.7799   12.1239   44.7404 C.3     1  UNL1       -0.0490
     12 H          11.1617   13.1964   43.7021 H       1  UNL1        0.2098
     13 H          12.8126   14.6216   41.8483 H       1  UNL1        0.0599
     14 H          13.6843   12.5485   41.3181 H       1  UNL1        0.0293
     15 H          12.5777   11.7360   42.4288 H       1  UNL1        0.0293
     16 H          12.0839   13.4122   45.2931 H       1  UNL1        0.0272
     17 H          13.6015   13.8656   46.0519 H       1  UNL1        0.0272
     18 H          13.7027   16.4932   43.3374 H       1  UNL1        0.0236
     19 H          14.0503   16.1852   45.0460 H       1  UNL1        0.0236
     20 H          12.3810   16.1564   44.4639 H       1  UNL1        0.0236
     21 H          15.2139   11.7011   43.0906 H       1  UNL1        0.0307
     22 H          16.3102   15.1153   44.7490 H       1  UNL1        0.0235
     23 H          16.9608   13.5270   44.3461 H       1  UNL1        0.0235
     24 H          15.7659   13.6920   45.6189 H       1  UNL1        0.0235
     25 H          15.8485   15.5351   42.3913 H       1  UNL1        0.0235
     26 H          14.9067   14.4678   41.3658 H       1  UNL1        0.0235
     27 H          16.4741   13.9460   41.9533 H       1  UNL1        0.0235
     28 H          13.0193   11.3433   44.6598 H       1  UNL1        0.0268
     29 H          14.5154   11.8030   45.4817 H       1  UNL1        0.0268
@<TRIPOS>BOND
     1     1     2    1
     2     2     3    1
     3     2     4    1
     4     3     5    1
     5     3     6    1
     6     3     7    1
     7     4     8    1
     8     5     9    1
     9     5    10    1
    10     6    11    1
    11     5     8    1
    12     8    11    1
    13     1    12    1
    14     2    13    1
    15     4    14    1
    16     4    15    1
    17     6    16    1
    18     6    17    1
    19     7    18    1
    20     7    19    1
    21     7    20    1
    22     8    21    1
    23     9    22    1
    24     9    23    1
    25     9    24    1
    26    10    25    1
    27    10    26    1
    28    10    27    1
    29    11    28    1
    30    11    29    1
@<TRIPOS>SUBSTRUCTURE
     1 UNL1        1 TEMP              0 ****  ****    0 ROOT


##########                                Name:                  97
##########                DOCK_Rotatable_Bonds:                  12
##########                         Heavy_Atoms:                  33
##########                    Molecular_Weight:             464.382
##########                       Formal_Charge:         0.000100136
##########                     HBond_Acceptors:                  12
##########                        HBond_Donors:                   8
##########                    Continuous_Score:          -51.815384
##########               Continuous_vdw_energy:          -46.351112
##########                Continuous_es_energy:           -5.464272
##########           Internal_energy_repulsive:            8.968939

@<TRIPOS>MOLECULE
97
 53 56 1 0 0
SMALL
GASTEIGER


@<TRIPOS>ATOM
      1 O          17.3704   14.2083   45.6707 O.2     1  UNL1       -0.2830
      2 C          16.8560   14.0130   44.5832 C.ar    1  UNL1        0.2379
      3 C          15.4386   13.5902   44.4190 C.ar    1  UNL1        0.2082
      4 C          17.5674   14.1662   43.3014 C.ar    1  UNL1        0.1092
      5 O          14.8374   13.4366   45.6287 O.3     1  UNL1       -0.5007
      6 C          15.0105   13.4178   43.3827 C.ar    1  UNL1        0.1807
      7 C          16.8247   13.8823   42.1760 C.ar    1  UNL1        0.1465
      8 C          18.9428   14.5846   43.1309 C.ar    1  UNL1        0.1348
      9 O          15.4983   13.4906   42.3647 O.2     1  UNL1       -0.4507
     10 C          13.5500   13.1863   43.0641 C.ar    1  UNL1        0.0247
     11 C          17.4347   14.0099   40.8628 C.ar    1  UNL1        0.0231
     12 O          19.7148   14.8724   44.2090 O.3     1  UNL1       -0.5058
     13 C          19.5073   14.7143   41.8714 C.ar    1  UNL1        0.0223
     14 C          12.9947   11.8940   43.1113 C.ar    1  UNL1       -0.0057
     15 C          12.7120   14.2533   42.6971 C.ar    1  UNL1       -0.0473
     16 C          18.7663   14.4299   40.7346 C.ar    1  UNL1        0.1239
     17 C          11.6457   11.6757   42.8046 C.ar    1  UNL1        0.1592
     18 C          11.3718   14.0262   42.3756 C.ar    1  UNL1       -0.0155
     19 O          19.4016   14.5838   39.5324 O.3     1  UNL1       -0.5065
     20 O          11.1464   10.4159   42.9536 O.3     1  UNL1       -0.5033
     21 C          10.8238   12.7432   42.4084 C.ar    1  UNL1        0.1652
     22 O           9.4574   12.6341   42.1370 O.3     1  UNL1       -0.4572
     23 C           8.4147   12.1738   43.0569 C.3     1  UNL1        0.2310
     24 O           7.1742   11.8584   42.3592 O.3     1  UNL1       -0.3313
     25 C           8.1190   13.2807   44.1024 C.3     1  UNL1        0.1454
     26 C           6.5648   12.9682   41.6459 C.3     1  UNL1        0.1140
     27 O           9.3176   13.6392   44.7991 O.3     1  UNL1       -0.3829
     28 C           7.5033   14.5239   43.4137 C.3     1  UNL1        0.1152
     29 C           6.2332   14.1277   42.6286 C.3     1  UNL1        0.1120
     30 C           5.3550   12.4672   40.8181 C.3     1  UNL1        0.0731
     31 O           7.1412   15.5138   44.3821 O.3     1  UNL1       -0.3864
     32 O           5.1925   13.7928   43.5647 O.3     1  UNL1       -0.3865
     33 O           4.7495   13.4990   40.0295 O.3     1  UNL1       -0.3924
     34 H          15.4617   12.9214   46.2001 H       1  UNL1        0.2924
     35 H          16.8415   13.7787   39.9814 H       1  UNL1        0.0691
     36 H          19.6857   14.0872   44.7826 H       1  UNL1        0.2922
     37 H          20.5416   15.0393   41.7752 H       1  UNL1        0.0691
     38 H          13.6171   11.0519   43.4027 H       1  UNL1        0.0662
     39 H          13.1003   15.2681   42.6593 H       1  UNL1        0.0626
     40 H          10.7397   14.8680   42.1048 H       1  UNL1        0.0655
     41 H          19.1960   13.8916   38.8895 H       1  UNL1        0.2921
     42 H          11.8242    9.8392   43.3365 H       1  UNL1        0.2923
     43 H           8.7566   11.2743   43.5857 H       1  UNL1        0.1084
     44 H           7.4063   12.8841   44.8308 H       1  UNL1        0.0683
     45 H           7.3069   13.3397   40.9329 H       1  UNL1        0.0647
     46 H           9.6390   12.8537   45.2750 H       1  UNL1        0.2102
     47 H           8.2379   14.9488   42.7243 H       1  UNL1        0.0648
     48 H           5.9040   14.9935   42.0471 H       1  UNL1        0.0647
     49 H           4.6042   12.0613   41.5015 H       1  UNL1        0.0584
     50 H           5.6850   11.6622   40.1561 H       1  UNL1        0.0584
     51 H           6.6231   16.1884   43.8977 H       1  UNL1        0.2100
     52 H           4.3698   14.2568   43.3175 H       1  UNL1        0.2100
     53 H           5.4146   13.8840   39.4326 H       1  UNL1        0.2095
@<TRIPOS>BOND
     1     1     2    2
     2     2     3   ar
     3     2     4   ar
     4     3     5    1
     5     3     6   ar
     6     4     7   ar
     7     4     8   ar
     8     6     9   ar
     9     6    10    1
    10     7    11   ar
    11     8    12    1
    12     8    13   ar
    13    10    14   ar
    14    10    15   ar
    15    11    16   ar
    16    14    17   ar
    17    15    18   ar
    18    16    19    1
    19    17    20    1
    20    17    21   ar
    21    21    22    1
    22    22    23    1
    23    23    24    1
    24    23    25    1
    25    24    26    1
    26    25    27    1
    27    25    28    1
    28    26    29    1
    29    26    30    1
    30    28    31    1
    31    29    32    1
    32    30    33    1
    33     7     9   ar
    34    13    16   ar
    35    18    21   ar
    36    28    29    1
    37     5    34    1
    38    11    35    1
    39    12    36    1
    40    13    37    1
    41    14    38    1
    42    15    39    1
    43    18    40    1
    44    19    41    1
    45    20    42    1
    46    23    43    1
    47    25    44    1
    48    26    45    1
    49    27    46    1
    50    28    47    1
    51    29    48    1
    52    30    49    1
    53    30    50    1
    54    31    51    1
    55    32    52    1
    56    33    53    1
@<TRIPOS>SUBSTRUCTURE
     1 UNL1        1 TEMP              0 ****  ****    0 ROOT


##########                                Name:                  97
##########                DOCK_Rotatable_Bonds:                  12
##########                         Heavy_Atoms:                  33
##########                    Molecular_Weight:             464.382
##########                       Formal_Charge:         0.000100136
##########                     HBond_Acceptors:                  12
##########                        HBond_Donors:                   8
##########                    Continuous_Score:          -48.026421
##########               Continuous_vdw_energy:          -43.876358
##########                Continuous_es_energy:           -4.150061
##########           Internal_energy_repulsive:            6.518469

@<TRIPOS>MOLECULE
97
 53 56 1 0 0
SMALL
GASTEIGER


@<TRIPOS>ATOM
      1 O          17.1132   14.1943   45.7334 O.2     1  UNL1       -0.2830
      2 C          16.4373   13.9091   44.7601 C.ar    1  UNL1        0.2379
      3 C          15.0064   13.5105   44.8531 C.ar    1  UNL1        0.2082
      4 C          16.9475   13.9195   43.3772 C.ar    1  UNL1        0.1092
      5 O          14.5943   13.4899   46.1486 O.3     1  UNL1       -0.5007
      6 C          14.4238   13.2509   43.9150 C.ar    1  UNL1        0.1807
      7 C          16.0390   13.5487   42.4098 C.ar    1  UNL1        0.1465
      8 C          18.2858   14.2826   42.9618 C.ar    1  UNL1        0.1348
      9 O          14.7521   13.2125   42.8332 O.2     1  UNL1       -0.4507
     10 C          12.9292   13.0290   43.8437 C.ar    1  UNL1        0.0247
     11 C          16.4438   13.5331   41.0138 C.ar    1  UNL1        0.0231
     12 O          19.2159   14.6521   43.8780 O.3     1  UNL1       -0.5058
     13 C          18.6538   14.2757   41.6252 C.ar    1  UNL1        0.0223
     14 C          12.3994   11.8142   43.3701 C.ar    1  UNL1       -0.0057
     15 C          12.0294   14.0356   44.2337 C.ar    1  UNL1       -0.0473
     16 C          17.7453   13.9032   40.6462 C.ar    1  UNL1        0.1239
     17 C          11.0160   11.6111   43.2917 C.ar    1  UNL1        0.1592
     18 C          10.6507   13.8330   44.1365 C.ar    1  UNL1       -0.0155
     19 O          18.1923   13.9239   39.3530 O.3     1  UNL1       -0.5065
     20 O          10.5654   10.3830   42.9081 O.3     1  UNL1       -0.5033
     21 C          10.1245   12.6340   43.6537 C.ar    1  UNL1        0.1652
     22 O           8.7330   12.5074   43.6622 O.3     1  UNL1       -0.4572
     23 C           7.8030   12.9822   42.6350 C.3     1  UNL1        0.2310
     24 O           7.4929   14.3977   42.7941 O.3     1  UNL1       -0.3313
     25 C           6.4788   12.1795   42.7227 C.3     1  UNL1        0.1454
     26 C           6.8585   14.7558   44.0515 C.3     1  UNL1        0.1140
     27 O           6.7380   10.7771   42.5932 O.3     1  UNL1       -0.3829
     28 C           5.7565   12.4729   44.0611 C.3     1  UNL1        0.1152
     29 C           5.5144   13.9906   44.2178 C.3     1  UNL1        0.1120
     30 C           6.7348   16.2958   44.1642 C.3     1  UNL1        0.0731
     31 O           4.4893   11.8094   44.1104 O.3     1  UNL1       -0.3864
     32 O           4.5108   14.4024   43.2720 O.3     1  UNL1       -0.3865
     33 O           6.1979   16.7246   45.4216 O.3     1  UNL1       -0.3924
     34 H          13.9729   12.7241   46.2436 H       1  UNL1        0.2924
     35 H          15.7208   13.2344   40.2587 H       1  UNL1        0.0691
     36 H          20.0712   14.6488   43.4146 H       1  UNL1        0.2922
     37 H          19.6653   14.5621   41.3431 H       1  UNL1        0.0691
     38 H          13.0723   11.0142   43.0721 H       1  UNL1        0.0662
     39 H          12.3988   14.9843   44.6151 H       1  UNL1        0.0626
     40 H           9.9734   14.6217   44.4538 H       1  UNL1        0.0655
     41 H          17.5548   14.2884   38.7242 H       1  UNL1        0.2921
     42 H          10.4101    9.8331   43.6905 H       1  UNL1        0.2923
     43 H           8.2401   12.8300   41.6393 H       1  UNL1        0.1084
     44 H           5.8355   12.4858   41.8931 H       1  UNL1        0.0683
     45 H           7.5272   14.4303   44.8542 H       1  UNL1        0.0647
     46 H           7.3159   10.5059   43.3277 H       1  UNL1        0.2102
     47 H           6.3794   12.1180   44.8865 H       1  UNL1        0.0648
     48 H           5.1308   14.1756   45.2252 H       1  UNL1        0.0647
     49 H           6.0839   16.6567   43.3632 H       1  UNL1        0.0584
     50 H           7.7228   16.7437   44.0291 H       1  UNL1        0.0584
     51 H           4.0409   12.0204   43.2663 H       1  UNL1        0.2100
     52 H           3.7272   14.7332   43.7513 H       1  UNL1        0.2100
     53 H           6.2591   17.6935   45.4872 H       1  UNL1        0.2095
@<TRIPOS>BOND
     1     1     2    2
     2     2     3   ar
     3     2     4   ar
     4     3     5    1
     5     3     6   ar
     6     4     7   ar
     7     4     8   ar
     8     6     9   ar
     9     6    10    1
    10     7    11   ar
    11     8    12    1
    12     8    13   ar
    13    10    14   ar
    14    10    15   ar
    15    11    16   ar
    16    14    17   ar
    17    15    18   ar
    18    16    19    1
    19    17    20    1
    20    17    21   ar
    21    21    22    1
    22    22    23    1
    23    23    24    1
    24    23    25    1
    25    24    26    1
    26    25    27    1
    27    25    28    1
    28    26    29    1
    29    26    30    1
    30    28    31    1
    31    29    32    1
    32    30    33    1
    33     7     9   ar
    34    13    16   ar
    35    18    21   ar
    36    28    29    1
    37     5    34    1
    38    11    35    1
    39    12    36    1
    40    13    37    1
    41    14    38    1
    42    15    39    1
    43    18    40    1
    44    19    41    1
    45    20    42    1
    46    23    43    1
    47    25    44    1
    48    26    45    1
    49    27    46    1
    50    28    47    1
    51    29    48    1
    52    30    49    1
    53    30    50    1
    54    31    51    1
    55    32    52    1
    56    33    53    1
@<TRIPOS>SUBSTRUCTURE
     1 UNL1        1 TEMP              0 ****  ****    0 ROOT


##########                                Name:                  97
##########                DOCK_Rotatable_Bonds:                  12
##########                         Heavy_Atoms:                  33
##########                    Molecular_Weight:             464.382
##########                       Formal_Charge:         0.000100136
##########                     HBond_Acceptors:                  12
##########                        HBond_Donors:                   8
##########                    Continuous_Score:          -48.313087
##########               Continuous_vdw_energy:          -43.796158
##########                Continuous_es_energy:           -4.516929
##########           Internal_energy_repulsive:            6.830631

@<TRIPOS>MOLECULE
97
 53 56 1 0 0
SMALL
GASTEIGER


@<TRIPOS>ATOM
      1 O          17.0041   14.1246   45.8295 O.2     1  UNL1       -0.2830
      2 C          16.3489   13.8449   44.8406 C.ar    1  UNL1        0.2379
      3 C          14.9206   13.4317   44.9025 C.ar    1  UNL1        0.2082
      4 C          16.8841   13.8768   43.4677 C.ar    1  UNL1        0.1092
      5 O          14.4850   13.3915   46.1899 O.3     1  UNL1       -0.5007
      6 C          14.3577   13.1781   43.9508 C.ar    1  UNL1        0.1807
      7 C          15.9972   13.5092   42.4792 C.ar    1  UNL1        0.1465
      8 C          18.2263   14.2576   43.0812 C.ar    1  UNL1        0.1348
      9 O          14.7061   13.1558   42.8749 O.2     1  UNL1       -0.4507
     10 C          12.8669   12.9428   43.8493 C.ar    1  UNL1        0.0247
     11 C          16.4276   13.5144   41.0909 C.ar    1  UNL1        0.0231
     12 O          19.1359   14.6247   44.0188 O.3     1  UNL1       -0.5058
     13 C          18.6189   14.2703   41.7517 C.ar    1  UNL1        0.0223
     14 C          12.3574   11.7138   43.3904 C.ar    1  UNL1       -0.0057
     15 C          11.9507   13.9508   44.1957 C.ar    1  UNL1       -0.0473
     16 C          17.7321   13.9011   40.7518 C.ar    1  UNL1        0.1239
     17 C          10.9777   11.4982   43.2839 C.ar    1  UNL1        0.1592
     18 C          10.5762   13.7353   44.0704 C.ar    1  UNL1       -0.0155
     19 O          18.2025   13.9416   39.4674 O.3     1  UNL1       -0.5065
     20 O          10.5453   10.2585   42.9171 O.3     1  UNL1       -0.5033
     21 C          10.0704   12.5218   43.6022 C.ar    1  UNL1        0.1652
     22 O           8.6800   12.3845   43.5807 O.3     1  UNL1       -0.4572
     23 C           7.7647   12.8902   42.5551 C.3     1  UNL1        0.2310
     24 O           7.4914   14.3122   42.7230 O.3     1  UNL1       -0.3313
     25 C           6.4198   12.1217   42.6353 C.3     1  UNL1        0.1454
     26 C           6.8642   14.6785   43.9818 C.3     1  UNL1        0.1140
     27 O           6.6427   10.7140   42.4970 O.3     1  UNL1       -0.3829
     28 C           5.7030   12.4251   43.9743 C.3     1  UNL1        0.1152
     29 C           5.5002   13.9475   44.1408 C.3     1  UNL1        0.1120
     30 C           6.7804   16.2205   44.1043 C.3     1  UNL1        0.0731
     31 O           4.4188   11.7946   44.0172 O.3     1  UNL1       -0.3864
     32 O           4.5095   14.3917   43.1959 O.3     1  UNL1       -0.3865
     33 O           5.9412   16.6524   45.1825 O.3     1  UNL1       -0.3924
     34 H          13.7525   12.7254   46.2281 H       1  UNL1        0.2924
     35 H          15.7216   13.2179   40.3191 H       1  UNL1        0.0691
     36 H          20.0019   14.6183   43.5757 H       1  UNL1        0.2922
     37 H          19.6325   14.5697   41.4918 H       1  UNL1        0.0691
     38 H          13.0430   10.9129   43.1262 H       1  UNL1        0.0662
     39 H          12.3041   14.9104   44.5645 H       1  UNL1        0.0626
     40 H           9.8859   14.5254   44.3544 H       1  UNL1        0.0655
     41 H          17.5139   14.0761   38.8023 H       1  UNL1        0.2921
     42 H          10.4898    9.6877   43.6980 H       1  UNL1        0.2923
     43 H           8.1995   12.7331   41.5592 H       1  UNL1        0.1084
     44 H           5.7863   12.4502   41.8067 H       1  UNL1        0.0683
     45 H           7.5226   14.3304   44.7833 H       1  UNL1        0.0647
     46 H           5.7771   10.2737   42.4373 H       1  UNL1        0.2102
     47 H           6.3149   12.0486   44.7985 H       1  UNL1        0.0648
     48 H           5.1196   14.1359   45.1486 H       1  UNL1        0.0647
     49 H           6.3874   16.6275   43.1688 H       1  UNL1        0.0584
     50 H           7.7862   16.6213   44.2552 H       1  UNL1        0.0584
     51 H           3.8351   12.3313   43.4431 H       1  UNL1        0.2100
     52 H           3.7074   14.6766   43.6741 H       1  UNL1        0.2100
     53 H           5.1107   16.1457   45.1705 H       1  UNL1        0.2095
@<TRIPOS>BOND
     1     1     2    2
     2     2     3   ar
     3     2     4   ar
     4     3     5    1
     5     3     6   ar
     6     4     7   ar
     7     4     8   ar
     8     6     9   ar
     9     6    10    1
    10     7    11   ar
    11     8    12    1
    12     8    13   ar
    13    10    14   ar
    14    10    15   ar
    15    11    16   ar
    16    14    17   ar
    17    15    18   ar
    18    16    19    1
    19    17    20    1
    20    17    21   ar
    21    21    22    1
    22    22    23    1
    23    23    24    1
    24    23    25    1
    25    24    26    1
    26    25    27    1
    27    25    28    1
    28    26    29    1
    29    26    30    1
    30    28    31    1
    31    29    32    1
    32    30    33    1
    33     7     9   ar
    34    13    16   ar
    35    18    21   ar
    36    28    29    1
    37     5    34    1
    38    11    35    1
    39    12    36    1
    40    13    37    1
    41    14    38    1
    42    15    39    1
    43    18    40    1
    44    19    41    1
    45    20    42    1
    46    23    43    1
    47    25    44    1
    48    26    45    1
    49    27    46    1
    50    28    47    1
    51    29    48    1
    52    30    49    1
    53    30    50    1
    54    31    51    1
    55    32    52    1
    56    33    53    1
@<TRIPOS>SUBSTRUCTURE
     1 UNL1        1 TEMP              0 ****  ****    0 ROOT


##########                                Name:                 100
##########                DOCK_Rotatable_Bonds:                   4
##########                         Heavy_Atoms:                  22
##########                    Molecular_Weight:             294.396
##########                       Formal_Charge:        -2.08616e-07
##########                     HBond_Acceptors:                   3
##########                        HBond_Donors:                   1
##########                    Continuous_Score:          -34.150013
##########               Continuous_vdw_energy:          -33.252708
##########                Continuous_es_energy:           -0.897305
##########           Internal_energy_repulsive:           11.442436

@<TRIPOS>MOLECULE
100
 44 47 1 0 0
SMALL
GASTEIGER


@<TRIPOS>ATOM
      1 O          11.5570   12.3367   41.3296 O.3     1  UNL1       -0.3856
      2 C          11.2644   13.1383   42.4796 C.3     1  UNL1        0.0963
      3 C           9.8410   12.9009   42.9947 C.ar    1  UNL1       -0.0071
      4 C          12.3369   12.9834   43.5986 C.3     1  UNL1        0.0408
      5 C           8.9974   13.9630   43.3791 C.ar    1  UNL1        0.0061
      6 C           9.3327   11.6020   43.0703 C.ar    1  UNL1       -0.0373
      7 N          13.4242   11.9755   43.3414 N.3     1  UNL1       -0.2960
      8 C          12.9511   14.3551   44.0153 C.3     1  UNL1       -0.0312
      9 C           7.6776   13.6755   43.7829 C.ar    1  UNL1        0.0713
     10 C           9.4337   15.2971   43.3730 C.ar    1  UNL1       -0.0522
     11 C           8.0193   11.3999   43.4808 C.ar    1  UNL1        0.0286
     12 C          14.4240   12.4237   42.3229 C.3     1  UNL1        0.0058
     13 C          14.1637   11.7574   44.6191 C.3     1  UNL1       -0.0004
     14 C          14.4919   14.2282   44.1017 C.3     1  UNL1       -0.0310
     15 N           7.1985   12.4120   43.8257 N.ar    1  UNL1       -0.2550
     16 C           6.8308   14.7233   44.1513 C.ar    1  UNL1       -0.0357
     17 C           8.5772   16.3273   43.7512 C.ar    1  UNL1       -0.0611
     18 C          14.9856   13.8316   42.6823 C.3     1  UNL1       -0.0075
     19 C          14.8126   13.0868   45.1061 C.3     1  UNL1       -0.0367
     20 C           7.2741   16.0418   44.1363 C.ar    1  UNL1       -0.0597
     21 C          16.4964   13.8868   42.5629 C.2     1  UNL1       -0.0865
     22 C          17.1415   13.8662   41.4042 C.2     1  UNL1       -0.1023
     23 H          12.5246   12.2528   41.2565 H       1  UNL1        0.2103
     24 H          11.3237   14.1677   42.1207 H       1  UNL1        0.0659
     25 H          11.7886   12.6191   44.4722 H       1  UNL1        0.0491
     26 H           9.9448   10.7433   42.8053 H       1  UNL1        0.0636
     27 H          12.5451   14.6578   44.9836 H       1  UNL1        0.0284
     28 H          12.6857   15.1389   43.3015 H       1  UNL1        0.0284
     29 H          10.4450   15.5649   43.0877 H       1  UNL1        0.0624
     30 H           7.5917   10.4010   43.5344 H       1  UNL1        0.0830
     31 H          13.9830   12.4427   41.3250 H       1  UNL1        0.0432
     32 H          15.2428   11.6990   42.2918 H       1  UNL1        0.0432
     33 H          14.9441   11.0048   44.4704 H       1  UNL1        0.0427
     34 H          13.4782   11.3825   45.3846 H       1  UNL1        0.0427
     35 H          14.9360   15.1737   44.4231 H       1  UNL1        0.0308
     36 H           5.8085   14.5099   44.4575 H       1  UNL1        0.0639
     37 H           8.9306   17.3559   43.7453 H       1  UNL1        0.0618
     38 H          14.5616   14.5467   41.9715 H       1  UNL1        0.0358
     39 H          15.8923   12.9597   45.2094 H       1  UNL1        0.0280
     40 H          14.4253   13.3435   46.0951 H       1  UNL1        0.0280
     41 H           6.6036   16.8456   44.4295 H       1  UNL1        0.0618
     42 H          17.0591   13.9429   43.4914 H       1  UNL1        0.0570
     43 H          16.6089   13.8069   40.4579 H       1  UNL1        0.0532
     44 H          18.2272   13.9077   41.3664 H       1  UNL1        0.0532
@<TRIPOS>BOND
     1     1     2    1
     2     2     3    1
     3     2     4    1
     4     3     5   ar
     5     3     6   ar
     6     4     7    1
     7     4     8    1
     8     5     9   ar
     9     5    10   ar
    10     6    11   ar
    11     7    12    1
    12     7    13    1
    13     8    14    1
    14     9    15   ar
    15     9    16   ar
    16    10    17   ar
    17    12    18    1
    18    13    19    1
    19    16    20   ar
    20    18    21    1
    21    21    22    2
    22    11    15   ar
    23    14    18    1
    24    14    19    1
    25    17    20   ar
    26     1    23    1
    27     2    24    1
    28     4    25    1
    29     6    26    1
    30     8    27    1
    31     8    28    1
    32    10    29    1
    33    11    30    1
    34    12    31    1
    35    12    32    1
    36    13    33    1
    37    13    34    1
    38    14    35    1
    39    16    36    1
    40    17    37    1
    41    18    38    1
    42    19    39    1
    43    19    40    1
    44    20    41    1
    45    21    42    1
    46    22    43    1
    47    22    44    1
@<TRIPOS>SUBSTRUCTURE
     1 UNL1        1 TEMP              0 ****  ****    0 ROOT


##########                                Name:                 100
##########                DOCK_Rotatable_Bonds:                   4
##########                         Heavy_Atoms:                  22
##########                    Molecular_Weight:             294.396
##########                       Formal_Charge:        -2.08616e-07
##########                     HBond_Acceptors:                   3
##########                        HBond_Donors:                   1
##########                    Continuous_Score:          -33.845867
##########               Continuous_vdw_energy:          -32.457111
##########                Continuous_es_energy:           -1.388754
##########           Internal_energy_repulsive:           13.334899

@<TRIPOS>MOLECULE
100
 44 47 1 0 0
SMALL
GASTEIGER


@<TRIPOS>ATOM
      1 O          11.8999   11.9093   40.9914 O.3     1  UNL1       -0.3856
      2 C          11.4329   12.8145   41.9979 C.3     1  UNL1        0.0963
      3 C           9.9407   12.6249   42.2892 C.ar    1  UNL1       -0.0071
      4 C          12.3032   12.7657   43.2889 C.3     1  UNL1        0.0408
      5 C           8.9687   13.5444   41.8453 C.ar    1  UNL1        0.0061
      6 C           9.5034   11.5002   42.9929 C.ar    1  UNL1       -0.0373
      7 N          13.5571   11.9373   43.2136 N.3     1  UNL1       -0.2960
      8 C          12.6227   14.1917   43.8342 C.3     1  UNL1       -0.0312
      9 C           7.6076   13.2737   42.0943 C.ar    1  UNL1        0.0713
     10 C           9.3167   14.7217   41.1648 C.ar    1  UNL1       -0.0522
     11 C           8.1421   11.3043   43.2000 C.ar    1  UNL1        0.0286
     12 C          14.6417   12.5698   42.4001 C.3     1  UNL1        0.0058
     13 C          14.0852   11.7712   44.5995 C.3     1  UNL1       -0.0004
     14 C          14.1257   14.2841   44.1945 C.3     1  UNL1       -0.0310
     15 N           7.2051   12.1660   42.7566 N.ar    1  UNL1       -0.2550
     16 C           6.6376   14.1723   41.6449 C.ar    1  UNL1       -0.0357
     17 C           8.3357   15.6094   40.7315 C.ar    1  UNL1       -0.0611
     18 C          14.9146   14.0264   42.8803 C.3     1  UNL1       -0.0075
     19 C          14.4322   13.1572   45.2194 C.3     1  UNL1       -0.0367
     20 C           6.9955   15.3334   40.9672 C.ar    1  UNL1       -0.0597
     21 C          16.3973   14.3036   43.0361 C.2     1  UNL1       -0.0865
     22 C          16.8860   15.4590   43.4664 C.2     1  UNL1       -0.1023
     23 H          12.7638   12.2279   40.6739 H       1  UNL1        0.2103
     24 H          11.5657   13.8059   41.5603 H       1  UNL1        0.0659
     25 H          11.6708   12.2877   44.0427 H       1  UNL1        0.0491
     26 H          10.2100   10.7679   43.3760 H       1  UNL1        0.0636
     27 H          12.0123   14.3894   44.7188 H       1  UNL1        0.0284
     28 H          12.3724   14.9601   43.0985 H       1  UNL1        0.0284
     29 H          10.3508   14.9812   40.9665 H       1  UNL1        0.0624
     30 H           7.7715   10.4300   43.7308 H       1  UNL1        0.0830
     31 H          14.3850   12.5695   41.3396 H       1  UNL1        0.0432
     32 H          15.5523   11.9724   42.5039 H       1  UNL1        0.0432
     33 H          14.9831   11.1461   44.5802 H       1  UNL1        0.0427
     34 H          13.3399   11.2679   45.2220 H       1  UNL1        0.0427
     35 H          14.3600   15.2683   44.6076 H       1  UNL1        0.0308
     36 H           5.5846   13.9667   41.8272 H       1  UNL1        0.0639
     37 H           8.6208   16.5196   40.2090 H       1  UNL1        0.0618
     38 H          14.5198   14.7039   42.1179 H       1  UNL1        0.0358
     39 H          15.4836   13.1822   45.5132 H       1  UNL1        0.0280
     40 H          13.8433   13.3111   46.1269 H       1  UNL1        0.0280
     41 H           6.2284   16.0245   40.6273 H       1  UNL1        0.0618
     42 H          17.0766   13.4970   42.7714 H       1  UNL1        0.0570
     43 H          16.2341   16.2869   43.7359 H       1  UNL1        0.0532
     44 H          17.9577   15.6134   43.5626 H       1  UNL1        0.0532
@<TRIPOS>BOND
     1     1     2    1
     2     2     3    1
     3     2     4    1
     4     3     5   ar
     5     3     6   ar
     6     4     7    1
     7     4     8    1
     8     5     9   ar
     9     5    10   ar
    10     6    11   ar
    11     7    12    1
    12     7    13    1
    13     8    14    1
    14     9    15   ar
    15     9    16   ar
    16    10    17   ar
    17    12    18    1
    18    13    19    1
    19    16    20   ar
    20    18    21    1
    21    21    22    2
    22    11    15   ar
    23    14    18    1
    24    14    19    1
    25    17    20   ar
    26     1    23    1
    27     2    24    1
    28     4    25    1
    29     6    26    1
    30     8    27    1
    31     8    28    1
    32    10    29    1
    33    11    30    1
    34    12    31    1
    35    12    32    1
    36    13    33    1
    37    13    34    1
    38    14    35    1
    39    16    36    1
    40    17    37    1
    41    18    38    1
    42    19    39    1
    43    19    40    1
    44    20    41    1
    45    21    42    1
    46    22    43    1
    47    22    44    1
@<TRIPOS>SUBSTRUCTURE
     1 UNL1        1 TEMP              0 ****  ****    0 ROOT


##########                                Name:                 100
##########                DOCK_Rotatable_Bonds:                   4
##########                         Heavy_Atoms:                  22
##########                    Molecular_Weight:             294.396
##########                       Formal_Charge:        -2.08616e-07
##########                     HBond_Acceptors:                   3
##########                        HBond_Donors:                   1
##########                    Continuous_Score:          -33.989418
##########               Continuous_vdw_energy:          -33.573982
##########                Continuous_es_energy:           -0.415435
##########           Internal_energy_repulsive:           11.755895

@<TRIPOS>MOLECULE
100
 44 47 1 0 0
SMALL
GASTEIGER


@<TRIPOS>ATOM
      1 O          13.2281   11.2712   43.4817 O.3     1  UNL1       -0.3856
      2 C          13.1925   12.5701   44.0834 C.3     1  UNL1        0.0963
      3 C          14.5992   13.1330   44.3114 C.ar    1  UNL1       -0.0071
      4 C          12.2737   13.5589   43.3058 C.3     1  UNL1        0.0408
      5 C          15.5093   13.3250   43.2520 C.ar    1  UNL1        0.0061
      6 C          15.0059   13.4986   45.5968 C.ar    1  UNL1       -0.0373
      7 N          11.3463   12.9457   42.2918 N.3     1  UNL1       -0.2960
      8 C          11.4867   14.5043   44.2645 C.3     1  UNL1       -0.0312
      9 C          16.7638   13.9072   43.5257 C.ar    1  UNL1        0.0713
     10 C          15.2034   12.9521   41.9339 C.ar    1  UNL1       -0.0522
     11 C          16.2617   14.0658   45.7861 C.ar    1  UNL1        0.0286
     12 C          10.1925   12.2159   42.9037 C.3     1  UNL1        0.0058
     13 C          10.7799   14.0465   41.4585 C.3     1  UNL1       -0.0004
     14 C          10.0031   14.5694   43.8257 C.3     1  UNL1       -0.0310
     15 N          17.1275   14.2758   44.7746 N.ar    1  UNL1       -0.2550
     16 C          17.6654   14.1141   42.4794 C.ar    1  UNL1       -0.0357
     17 C          16.1184   13.1593   40.9053 C.ar    1  UNL1       -0.0611
     18 C           9.4455   13.1221   43.9271 C.3     1  UNL1       -0.0075
     19 C           9.9726   15.0403   42.3451 C.3     1  UNL1       -0.0367
     20 C          17.3480   13.7444   41.1764 C.ar    1  UNL1       -0.0597
     21 C           7.9418   13.0708   43.7381 C.2     1  UNL1       -0.0865
     22 C           7.0975   13.8907   44.3497 C.2     1  UNL1       -0.1023
     23 H          13.2931   10.6090   44.1929 H       1  UNL1        0.2103
     24 H          12.7336   12.4089   45.0609 H       1  UNL1        0.0659
     25 H          12.9565   14.2002   42.7409 H       1  UNL1        0.0491
     26 H          14.3529   13.3549   46.4543 H       1  UNL1        0.0636
     27 H          11.9297   15.5029   44.2374 H       1  UNL1        0.0284
     28 H          11.5496   14.1579   45.2991 H       1  UNL1        0.0284
     29 H          14.2589   12.4847   41.6782 H       1  UNL1        0.0624
     30 H          16.5990   14.3744   46.7732 H       1  UNL1        0.0830
     31 H          10.5254   11.2989   43.3923 H       1  UNL1        0.0432
     32 H           9.5043   11.9168   42.1076 H       1  UNL1        0.0432
     33 H          10.1226   13.6275   40.6904 H       1  UNL1        0.0427
     34 H          11.5885   14.5813   40.9521 H       1  UNL1        0.0427
     35 H           9.4436   15.2529   44.4692 H       1  UNL1        0.0308
     36 H          18.6330   14.5693   42.6818 H       1  UNL1        0.0639
     37 H          15.8689   12.8614   39.8895 H       1  UNL1        0.0618
     38 H           9.6758   12.7472   44.9284 H       1  UNL1        0.0358
     39 H           8.9435   15.1097   41.9866 H       1  UNL1        0.0280
     40 H          10.4068   16.0398   42.2649 H       1  UNL1        0.0280
     41 H          18.0625   13.9089   40.3738 H       1  UNL1        0.0618
     42 H           7.5591   12.3104   43.0620 H       1  UNL1        0.0570
     43 H           7.4474   14.6598   45.0345 H       1  UNL1        0.0532
     44 H           6.0257   13.8174   44.1839 H       1  UNL1        0.0532
@<TRIPOS>BOND
     1     1     2    1
     2     2     3    1
     3     2     4    1
     4     3     5   ar
     5     3     6   ar
     6     4     7    1
     7     4     8    1
     8     5     9   ar
     9     5    10   ar
    10     6    11   ar
    11     7    12    1
    12     7    13    1
    13     8    14    1
    14     9    15   ar
    15     9    16   ar
    16    10    17   ar
    17    12    18    1
    18    13    19    1
    19    16    20   ar
    20    18    21    1
    21    21    22    2
    22    11    15   ar
    23    14    18    1
    24    14    19    1
    25    17    20   ar
    26     1    23    1
    27     2    24    1
    28     4    25    1
    29     6    26    1
    30     8    27    1
    31     8    28    1
    32    10    29    1
    33    11    30    1
    34    12    31    1
    35    12    32    1
    36    13    33    1
    37    13    34    1
    38    14    35    1
    39    16    36    1
    40    17    37    1
    41    18    38    1
    42    19    39    1
    43    19    40    1
    44    20    41    1
    45    21    42    1
    46    22    43    1
    47    22    44    1
@<TRIPOS>SUBSTRUCTURE
     1 UNL1        1 TEMP              0 ****  ****    0 ROOT


##########                                Name:                 101
##########                DOCK_Rotatable_Bonds:                   0
##########                         Heavy_Atoms:                  14
##########                    Molecular_Weight:             186.167
##########                       Formal_Charge:         0.000100024
##########                     HBond_Acceptors:                   3
##########                        HBond_Donors:                   0
##########                    Continuous_Score:          -27.121923
##########               Continuous_vdw_energy:          -27.074266
##########                Continuous_es_energy:           -0.047657
##########           Internal_energy_repulsive:            0.399933

@<TRIPOS>MOLECULE
101
 20 22 1 0 0
SMALL
GASTEIGER


@<TRIPOS>ATOM
      1 O          21.1267    7.6805   42.8273 O.2     1  UNL1       -0.2452
      2 C          21.7027    8.1964   41.8918 C.ar    1  UNL1        0.3372
      3 O          21.6552    7.6548   40.6496 O.2     1  UNL1       -0.4220
      4 C          22.4873    9.4352   41.9992 C.ar    1  UNL1        0.0236
      5 C          22.2958    8.1575   39.5333 C.ar    1  UNL1        0.1426
      6 C          23.1318   10.0315   40.8641 C.ar    1  UNL1       -0.0443
      7 C          23.0230    9.3993   39.6331 C.ar    1  UNL1        0.0184
      8 C          22.1617    7.4287   38.2980 C.ar    1  UNL1        0.0243
      9 C          23.5933    9.9425   38.4844 C.ar    1  UNL1       -0.0403
     10 C          22.6220    8.0738   37.0924 C.ar    1  UNL1        0.1383
     11 C          23.4156    9.2519   37.2339 C.ar    1  UNL1        0.0209
     12 O          23.0662    7.3747   36.0012 O.2     1  UNL1       -0.4628
     13 C          24.3707    9.2483   36.1753 C.ar    1  UNL1       -0.0161
     14 C          24.0842    8.1190   35.4443 C.ar    1  UNL1        0.0931
     15 H          22.5300    9.8751   42.9904 H       1  UNL1        0.0689
     16 H          23.6747   10.9681   40.9628 H       1  UNL1        0.0627
     17 H          21.7136    6.4458   38.1764 H       1  UNL1        0.0692
     18 H          24.1436   10.8792   38.5287 H       1  UNL1        0.0632
     19 H          25.2016    9.9330   36.0424 H       1  UNL1        0.0655
     20 H          24.5597    7.6667   34.5821 H       1  UNL1        0.1029
@<TRIPOS>BOND
     1     1     2    2
     2     2     3   ar
     3     2     4   ar
     4     3     5   ar
     5     4     6   ar
     6     5     7   ar
     7     5     8   ar
     8     7     9   ar
     9     8    10   ar
    10     9    11   ar
    11    10    12   ar
    12    11    13   ar
    13    12    14   ar
    14     6     7   ar
    15    10    11   ar
    16    13    14   ar
    17     4    15    1
    18     6    16    1
    19     8    17    1
    20     9    18    1
    21    13    19    1
    22    14    20    1
@<TRIPOS>SUBSTRUCTURE
     1 UNL1        1 TEMP              0 ****  ****    0 ROOT


##########                                Name:                 101
##########                DOCK_Rotatable_Bonds:                   0
##########                         Heavy_Atoms:                  14
##########                    Molecular_Weight:             186.167
##########                       Formal_Charge:         0.000100024
##########                     HBond_Acceptors:                   3
##########                        HBond_Donors:                   0
##########                    Continuous_Score:          -26.972858
##########               Continuous_vdw_energy:          -26.864334
##########                Continuous_es_energy:           -0.108525
##########           Internal_energy_repulsive:            0.399962

@<TRIPOS>MOLECULE
101
 20 22 1 0 0
SMALL
GASTEIGER


@<TRIPOS>ATOM
      1 O          21.1197    7.7708   42.8510 O.2     1  UNL1       -0.2452
      2 C          21.7068    8.2550   41.9056 C.ar    1  UNL1        0.3372
      3 O          21.6166    7.7116   40.6665 O.2     1  UNL1       -0.4220
      4 C          22.5510    9.4554   41.9969 C.ar    1  UNL1        0.0236
      5 C          22.2651    8.1790   39.5394 C.ar    1  UNL1        0.1426
      6 C          23.2077   10.0159   40.8505 C.ar    1  UNL1       -0.0443
      7 C          23.0520    9.3849   39.6239 C.ar    1  UNL1        0.0184
      8 C          22.0795    7.4527   38.3093 C.ar    1  UNL1        0.0243
      9 C          23.6318    9.8958   38.4652 C.ar    1  UNL1       -0.0403
     10 C          22.5535    8.0705   37.0948 C.ar    1  UNL1        0.1383
     11 C          23.4042    9.2099   37.2203 C.ar    1  UNL1        0.0209
     12 O          22.9488    7.3469   36.0006 O.2     1  UNL1       -0.4628
     13 C          24.3434    9.1566   36.1490 C.ar    1  UNL1       -0.0161
     14 C          23.9934    8.0396   35.4269 C.ar    1  UNL1        0.0931
     15 H          22.6282    9.8965   42.9854 H       1  UNL1        0.0689
     16 H          23.7958   10.9258   40.9377 H       1  UNL1        0.0627
     17 H          21.5833    6.4919   38.1981 H       1  UNL1        0.0692
     18 H          24.2267   10.8054   38.4980 H       1  UNL1        0.0632
     19 H          25.2043    9.8004   36.0018 H       1  UNL1        0.0655
     20 H          24.4351    7.5618   34.5604 H       1  UNL1        0.1029
@<TRIPOS>BOND
     1     1     2    2
     2     2     3   ar
     3     2     4   ar
     4     3     5   ar
     5     4     6   ar
     6     5     7   ar
     7     5     8   ar
     8     7     9   ar
     9     8    10   ar
    10     9    11   ar
    11    10    12   ar
    12    11    13   ar
    13    12    14   ar
    14     6     7   ar
    15    10    11   ar
    16    13    14   ar
    17     4    15    1
    18     6    16    1
    19     8    17    1
    20     9    18    1
    21    13    19    1
    22    14    20    1
@<TRIPOS>SUBSTRUCTURE
     1 UNL1        1 TEMP              0 ****  ****    0 ROOT


##########                                Name:                 101
##########                DOCK_Rotatable_Bonds:                   0
##########                         Heavy_Atoms:                  14
##########                    Molecular_Weight:             186.167
##########                       Formal_Charge:         0.000100024
##########                     HBond_Acceptors:                   3
##########                        HBond_Donors:                   0
##########                    Continuous_Score:          -26.754093
##########               Continuous_vdw_energy:          -27.010832
##########                Continuous_es_energy:            0.256739
##########           Internal_energy_repulsive:            0.399909

@<TRIPOS>MOLECULE
101
 20 22 1 0 0
SMALL
GASTEIGER


@<TRIPOS>ATOM
      1 O          21.0895    7.7710   42.8810 O.2     1  UNL1       -0.2452
      2 C          21.6864    8.2986   41.9656 C.ar    1  UNL1        0.3372
      3 O          21.7488    7.7223   40.7396 O.2     1  UNL1       -0.4220
      4 C          22.3823    9.5888   42.0809 C.ar    1  UNL1        0.0236
      5 C          22.4219    8.2364   39.6479 C.ar    1  UNL1        0.1426
      6 C          23.0545   10.1958   40.9678 C.ar    1  UNL1       -0.0443
      7 C          23.0607    9.5255   39.7523 C.ar    1  UNL1        0.0184
      8 C          22.4093    7.4678   38.4295 C.ar    1  UNL1        0.0243
      9 C          23.6632   10.0743   38.6228 C.ar    1  UNL1       -0.0403
     10 C          22.8992    8.1096   37.2338 C.ar    1  UNL1        0.1383
     11 C          23.6056    9.3407   37.3857 C.ar    1  UNL1        0.0209
     12 O          23.4520    7.4125   36.1921 O.2     1  UNL1       -0.4628
     13 C          24.6209    9.3717   36.3852 C.ar    1  UNL1       -0.0161
     14 C          24.4520    8.2071   35.6733 C.ar    1  UNL1        0.0931
     15 H          22.3369   10.0566   43.0591 H       1  UNL1        0.0689
     16 H          23.5292   11.1684   41.0694 H       1  UNL1        0.0627
     17 H          22.0332    6.4547   38.3120 H       1  UNL1        0.0692
     18 H          24.1486   11.0460   38.6707 H       1  UNL1        0.0632
     19 H          25.4130   10.1059   36.2802 H       1  UNL1        0.0655
     20 H          25.0066    7.7643   34.8545 H       1  UNL1        0.1029
@<TRIPOS>BOND
     1     1     2    2
     2     2     3   ar
     3     2     4   ar
     4     3     5   ar
     5     4     6   ar
     6     5     7   ar
     7     5     8   ar
     8     7     9   ar
     9     8    10   ar
    10     9    11   ar
    11    10    12   ar
    12    11    13   ar
    13    12    14   ar
    14     6     7   ar
    15    10    11   ar
    16    13    14   ar
    17     4    15    1
    18     6    16    1
    19     8    17    1
    20     9    18    1
    21    13    19    1
    22    14    20    1
@<TRIPOS>SUBSTRUCTURE
     1 UNL1        1 TEMP              0 ****  ****    0 ROOT


##########                                Name:                 103
##########                DOCK_Rotatable_Bonds:                  10
##########                         Heavy_Atoms:                  31
##########                    Molecular_Weight:             434.399
##########                       Formal_Charge:         0.000499845
##########                     HBond_Acceptors:                  10
##########                        HBond_Donors:                   6
##########                    Continuous_Score:          -42.655136
##########               Continuous_vdw_energy:          -37.350323
##########                Continuous_es_energy:           -5.304814
##########           Internal_energy_repulsive:           11.476864

@<TRIPOS>MOLECULE
103
 53 56 1 0 0
SMALL
GASTEIGER


@<TRIPOS>ATOM
      1 O          18.5316   14.8291   45.2929 O.2     1  UNL1       -0.2917
      2 C          17.9333   14.7665   44.2353 C.2     1  UNL1        0.1740
      3 C          16.5358   14.2186   44.0995 C.ar    1  UNL1        0.1007
      4 C          18.6473   15.1399   42.9571 C.3     1  UNL1        0.0520
      5 C          15.9191   14.2512   42.8420 C.ar    1  UNL1        0.1389
      6 C          15.8391   13.6532   45.1794 C.ar    1  UNL1        0.1343
      7 C          17.6697   15.7165   41.9175 C.3     1  UNL1        0.1322
      8 O          16.5599   14.8013   41.7499 O.3     1  UNL1       -0.4828
      9 C          14.6508   13.7075   42.6565 C.ar    1  UNL1        0.0229
     10 O          16.3909   13.5889   46.4269 O.3     1  UNL1       -0.5058
     11 C          14.5730   13.0984   44.9855 C.ar    1  UNL1        0.0226
     12 C          18.3675   15.9031   40.5804 C.ar    1  UNL1       -0.0067
     13 C          13.9753   13.1177   43.7203 C.ar    1  UNL1        0.1310
     14 C          18.8185   14.7999   39.8505 C.ar    1  UNL1       -0.0516
     15 C          18.6203   17.1910   40.1062 C.ar    1  UNL1       -0.0516
     16 O          12.7327   12.5606   43.4625 O.3     1  UNL1       -0.4606
     17 C          19.5120   14.9811   38.6581 C.ar    1  UNL1       -0.0198
     18 C          19.3217   17.3740   38.9158 C.ar    1  UNL1       -0.0198
     19 C          12.0910   12.6140   42.1626 C.3     1  UNL1        0.2308
     20 C          19.7664   16.2697   38.1946 C.ar    1  UNL1        0.1169
     21 O          11.6943   13.9731   41.8358 O.3     1  UNL1       -0.3313
     22 C          10.8342   11.7134   42.1710 C.3     1  UNL1        0.1454
     23 O          20.4642   16.4480   37.0415 O.3     1  UNL1       -0.5068
     24 C          10.7648   14.5998   42.7613 C.3     1  UNL1        0.1140
     25 O          11.1848   10.3795   42.5642 O.3     1  UNL1       -0.3829
     26 C           9.7609   12.2912   43.1265 C.3     1  UNL1        0.1152
     27 C           9.4578   13.7726   42.7973 C.3     1  UNL1        0.1120
     28 C          10.5090   16.0543   42.3062 C.3     1  UNL1        0.0731
     29 O           8.5452   11.5561   42.9893 O.3     1  UNL1       -0.3864
     30 O           8.7893   13.8601   41.5311 O.3     1  UNL1       -0.3865
     31 O          11.5848   16.8951   42.7228 O.3     1  UNL1       -0.3924
     32 H          19.1234   14.2432   42.5527 H       1  UNL1        0.0385
     33 H          19.4316   15.8703   43.1693 H       1  UNL1        0.0385
     34 H          17.2731   16.6684   42.2848 H       1  UNL1        0.0789
     35 H          14.1903   13.7359   41.6718 H       1  UNL1        0.0691
     36 H          15.9638   12.8478   46.9144 H       1  UNL1        0.2922
     37 H          14.0692   12.6406   45.8324 H       1  UNL1        0.0691
     38 H          18.6422   13.7890   40.2126 H       1  UNL1        0.0623
     39 H          18.2897   18.0581   40.6720 H       1  UNL1        0.0623
     40 H          19.8611   14.1151   38.1004 H       1  UNL1        0.0654
     41 H          19.5283   18.3795   38.5567 H       1  UNL1        0.0654
     42 H          12.8082   12.2657   41.4026 H       1  UNL1        0.1084
     43 H          10.4313   11.6793   41.1550 H       1  UNL1        0.0683
     44 H          21.0369   15.6740   36.9010 H       1  UNL1        0.2921
     45 H          11.2114   14.6104   43.7602 H       1  UNL1        0.0647
     46 H          11.6281   10.4103   43.4335 H       1  UNL1        0.2102
     47 H          10.1191   12.2149   44.1571 H       1  UNL1        0.0648
     48 H           8.7985   14.1753   43.5716 H       1  UNL1        0.0647
     49 H           9.5742   16.4174   42.7421 H       1  UNL1        0.0584
     50 H          10.4266   16.0995   41.2166 H       1  UNL1        0.0584
     51 H           7.8699   12.0861   43.4566 H       1  UNL1        0.2100
     52 H           8.5008   14.7842   41.4173 H       1  UNL1        0.2100
     53 H          11.8728   16.6048   43.6038 H       1  UNL1        0.2095
@<TRIPOS>BOND
     1     1     2    2
     2     2     3    1
     3     2     4    1
     4     3     5   ar
     5     3     6   ar
     6     4     7    1
     7     5     8    1
     8     5     9   ar
     9     6    10    1
    10     6    11   ar
    11     7    12    1
    12     9    13   ar
    13    12    14   ar
    14    12    15   ar
    15    13    16    1
    16    14    17   ar
    17    15    18   ar
    18    16    19    1
    19    17    20   ar
    20    19    21    1
    21    19    22    1
    22    20    23    1
    23    21    24    1
    24    22    25    1
    25    22    26    1
    26    24    27    1
    27    24    28    1
    28    26    29    1
    29    27    30    1
    30    28    31    1
    31     7     8    1
    32    11    13   ar
    33    18    20   ar
    34    26    27    1
    35     4    32    1
    36     4    33    1
    37     7    34    1
    38     9    35    1
    39    10    36    1
    40    11    37    1
    41    14    38    1
    42    15    39    1
    43    17    40    1
    44    18    41    1
    45    19    42    1
    46    22    43    1
    47    23    44    1
    48    24    45    1
    49    25    46    1
    50    26    47    1
    51    27    48    1
    52    28    49    1
    53    28    50    1
    54    29    51    1
    55    30    52    1
    56    31    53    1
@<TRIPOS>SUBSTRUCTURE
     1 UNL1        1 TEMP              0 ****  ****    0 ROOT


##########                                Name:                 103
##########                DOCK_Rotatable_Bonds:                  10
##########                         Heavy_Atoms:                  31
##########                    Molecular_Weight:             434.399
##########                       Formal_Charge:         0.000499845
##########                     HBond_Acceptors:                  10
##########                        HBond_Donors:                   6
##########                    Continuous_Score:          -41.390865
##########               Continuous_vdw_energy:          -36.438206
##########                Continuous_es_energy:           -4.952658
##########           Internal_energy_repulsive:           11.060804

@<TRIPOS>MOLECULE
103
 53 56 1 0 0
SMALL
GASTEIGER


@<TRIPOS>ATOM
      1 O          18.4418   14.9057   45.2783 O.2     1  UNL1       -0.2917
      2 C          17.8742   14.7885   44.2084 C.2     1  UNL1        0.1740
      3 C          16.5133   14.1604   44.0514 C.ar    1  UNL1        0.1007
      4 C          18.5977   15.1760   42.9397 C.3     1  UNL1        0.0520
      5 C          15.9268   14.1333   42.7794 C.ar    1  UNL1        0.1389
      6 C          15.8227   13.5783   45.1264 C.ar    1  UNL1        0.1343
      7 C          17.6155   15.6760   41.8655 C.3     1  UNL1        0.1322
      8 O          16.5627   14.6968   41.6911 O.3     1  UNL1       -0.4828
      9 C          14.6958   13.5157   42.5756 C.ar    1  UNL1        0.0229
     10 O          16.3461   13.5698   46.3877 O.3     1  UNL1       -0.5058
     11 C          14.5946   12.9495   44.9146 C.ar    1  UNL1        0.0226
     12 C          18.3345   15.8749   40.5414 C.ar    1  UNL1       -0.0067
     13 C          14.0282   12.9100   43.6355 C.ar    1  UNL1        0.1310
     14 C          18.8708   14.7854   39.8497 C.ar    1  UNL1       -0.0516
     15 C          18.5200   17.1648   40.0423 C.ar    1  UNL1       -0.0516
     16 O          12.8252   12.2790   43.3604 O.3     1  UNL1       -0.4606
     17 C          19.5822   14.9819   38.6705 C.ar    1  UNL1       -0.0198
     18 C          19.2392   17.3637   38.8651 C.ar    1  UNL1       -0.0198
     19 C          12.0455   12.5390   42.1651 C.3     1  UNL1        0.2308
     20 C          19.7691   16.2729   38.1820 C.ar    1  UNL1        0.1169
     21 O          11.7053   13.9481   42.0645 O.3     1  UNL1       -0.3313
     22 C          10.7409   11.7104   42.2105 C.3     1  UNL1        0.1454
     23 O          20.4840   16.4677   37.0421 O.3     1  UNL1       -0.5068
     24 C          10.9300   14.4912   43.1679 C.3     1  UNL1        0.1140
     25 O          11.0445   10.3198   42.3854 O.3     1  UNL1       -0.3829
     26 C           9.8232   12.2085   43.3546 C.3     1  UNL1        0.1152
     27 C           9.5837   13.7341   43.2559 C.3     1  UNL1        0.1120
     28 C          10.7213   16.0048   42.9360 C.3     1  UNL1        0.0731
     29 O           8.5538   11.5612   43.2729 O.3     1  UNL1       -0.3864
     30 O           8.7833   14.0248   42.1013 O.3     1  UNL1       -0.3865
     31 O          11.9797   16.6786   42.9325 O.3     1  UNL1       -0.3924
     32 H          19.1328   14.2996   42.5657 H       1  UNL1        0.0385
     33 H          19.3346   15.9534   43.1548 H       1  UNL1        0.0385
     34 H          17.1574   16.6112   42.2031 H       1  UNL1        0.0789
     35 H          14.2588   13.4986   41.5800 H       1  UNL1        0.0691
     36 H          15.9766   12.7947   46.8690 H       1  UNL1        0.2922
     37 H          14.0962   12.4810   45.7589 H       1  UNL1        0.0691
     38 H          18.7476   13.7741   40.2319 H       1  UNL1        0.0623
     39 H          18.1226   18.0225   40.5786 H       1  UNL1        0.0623
     40 H          19.9979   14.1267   38.1426 H       1  UNL1        0.0654
     41 H          19.3929   18.3716   38.4868 H       1  UNL1        0.0654
     42 H          12.6474   12.2600   41.2858 H       1  UNL1        0.1084
     43 H          10.2241   11.8336   41.2547 H       1  UNL1        0.0683
     44 H          20.9972   15.6625   36.8546 H       1  UNL1        0.2921
     45 H          11.4866   14.3449   44.0985 H       1  UNL1        0.0647
     46 H          11.1831   10.1415   43.3353 H       1  UNL1        0.2102
     47 H          10.2900   11.9763   44.3162 H       1  UNL1        0.0648
     48 H           9.0443   14.0622   44.1492 H       1  UNL1        0.0647
     49 H          10.0914   16.4153   43.7299 H       1  UNL1        0.0584
     50 H          10.2269   16.1744   41.9755 H       1  UNL1        0.0584
     51 H           7.9875   12.0221   43.9227 H       1  UNL1        0.2100
     52 H           8.2764   14.8346   42.2947 H       1  UNL1        0.2100
     53 H          12.4549   16.4294   42.1228 H       1  UNL1        0.2095
@<TRIPOS>BOND
     1     1     2    2
     2     2     3    1
     3     2     4    1
     4     3     5   ar
     5     3     6   ar
     6     4     7    1
     7     5     8    1
     8     5     9   ar
     9     6    10    1
    10     6    11   ar
    11     7    12    1
    12     9    13   ar
    13    12    14   ar
    14    12    15   ar
    15    13    16    1
    16    14    17   ar
    17    15    18   ar
    18    16    19    1
    19    17    20   ar
    20    19    21    1
    21    19    22    1
    22    20    23    1
    23    21    24    1
    24    22    25    1
    25    22    26    1
    26    24    27    1
    27    24    28    1
    28    26    29    1
    29    27    30    1
    30    28    31    1
    31     7     8    1
    32    11    13   ar
    33    18    20   ar
    34    26    27    1
    35     4    32    1
    36     4    33    1
    37     7    34    1
    38     9    35    1
    39    10    36    1
    40    11    37    1
    41    14    38    1
    42    15    39    1
    43    17    40    1
    44    18    41    1
    45    19    42    1
    46    22    43    1
    47    23    44    1
    48    24    45    1
    49    25    46    1
    50    26    47    1
    51    27    48    1
    52    28    49    1
    53    28    50    1
    54    29    51    1
    55    30    52    1
    56    31    53    1
@<TRIPOS>SUBSTRUCTURE
     1 UNL1        1 TEMP              0 ****  ****    0 ROOT


##########                                Name:                 103
##########                DOCK_Rotatable_Bonds:                  10
##########                         Heavy_Atoms:                  31
##########                    Molecular_Weight:             434.399
##########                       Formal_Charge:         0.000499845
##########                     HBond_Acceptors:                  10
##########                        HBond_Donors:                   6
##########                    Continuous_Score:          -38.604065
##########               Continuous_vdw_energy:          -36.210911
##########                Continuous_es_energy:           -2.393153
##########           Internal_energy_repulsive:            8.569017

@<TRIPOS>MOLECULE
103
 53 56 1 0 0
SMALL
GASTEIGER


@<TRIPOS>ATOM
      1 O           5.3146    9.6163   43.9096 O.2     1  UNL1       -0.2917
      2 C           5.4010   10.8193   44.0704 C.2     1  UNL1        0.1740
      3 C           6.6748   11.5983   43.8644 C.ar    1  UNL1        0.1007
      4 C           4.2167   11.5804   44.6191 C.3     1  UNL1        0.0520
      5 C           6.6449   12.9905   44.0181 C.ar    1  UNL1        0.1389
      6 C           7.8952   10.9791   43.5503 C.ar    1  UNL1        0.1343
      7 C           4.1830   13.0240   44.0865 C.3     1  UNL1        0.1322
      8 O           5.4689   13.6473   44.3213 O.3     1  UNL1       -0.4828
      9 C           7.8075   13.7461   43.8914 C.ar    1  UNL1        0.0229
     10 O           7.9868    9.6257   43.3933 O.3     1  UNL1       -0.5058
     11 C           9.0600   11.7397   43.4366 C.ar    1  UNL1        0.0226
     12 C           3.1042   13.8255   44.7959 C.ar    1  UNL1       -0.0067
     13 C           9.0222   13.1275   43.6131 C.ar    1  UNL1        0.1310
     14 C           3.2653   14.2167   46.1278 C.ar    1  UNL1       -0.0516
     15 C           1.9115   14.1179   44.1330 C.ar    1  UNL1       -0.0516
     16 O          10.1494   13.9303   43.5372 O.3     1  UNL1       -0.4606
     17 C           2.2472   14.8956   46.7897 C.ar    1  UNL1       -0.0198
     18 C           0.8877   14.7911   44.7975 C.ar    1  UNL1       -0.0198
     19 C          11.1400   13.8135   42.4838 C.3     1  UNL1        0.2308
     20 C           1.0570   15.1780   46.1237 C.ar    1  UNL1        0.1169
     21 O          12.0662   12.7289   42.7614 O.3     1  UNL1       -0.3313
     22 C          11.9344   15.1355   42.3747 C.3     1  UNL1        0.1454
     23 O           0.0527   15.8207   46.7769 O.3     1  UNL1       -0.5068
     24 C          12.8183   12.8419   44.0004 C.3     1  UNL1        0.1140
     25 O          11.0371   16.2362   42.1752 O.3     1  UNL1       -0.3829
     26 C          12.7872   15.3608   43.6479 C.3     1  UNL1        0.1152
     27 C          13.6740   14.1299   43.9525 C.3     1  UNL1        0.1120
     28 C          13.6932   11.5795   44.1719 C.3     1  UNL1        0.0731
     29 O          13.6484   16.4835   43.4605 O.3     1  UNL1       -0.3864
     30 O          14.6899   14.0044   42.9473 O.3     1  UNL1       -0.3865
     31 O          12.9131   10.4068   43.9393 O.3     1  UNL1       -0.3924
     32 H           4.2904   11.5950   45.7092 H       1  UNL1        0.0385
     33 H           3.2894   11.0679   44.3517 H       1  UNL1        0.0385
     34 H           4.0062   13.0056   43.0063 H       1  UNL1        0.0789
     35 H           7.7664   14.8252   44.0205 H       1  UNL1        0.0691
     36 H           7.0746    9.2565   43.3673 H       1  UNL1        0.2922
     37 H           9.9960   11.2310   43.2224 H       1  UNL1        0.0691
     38 H           4.1833   13.9847   46.6641 H       1  UNL1        0.0623
     39 H           1.7663   13.8051   43.1024 H       1  UNL1        0.0623
     40 H           2.3828   15.1921   47.8273 H       1  UNL1        0.0654
     41 H          -0.0452   15.0051   44.2813 H       1  UNL1        0.0654
     42 H          10.6211   13.5977   41.5365 H       1  UNL1        0.1084
     43 H          12.5951   15.0666   41.5060 H       1  UNL1        0.0683
     44 H           0.2916   15.8979   47.7169 H       1  UNL1        0.2921
     45 H          12.1161   12.9073   44.8370 H       1  UNL1        0.0647
     46 H          10.5814   16.4316   43.0162 H       1  UNL1        0.2102
     47 H          12.1230   15.5481   44.4965 H       1  UNL1        0.0648
     48 H          14.1564   14.2775   44.9231 H       1  UNL1        0.0647
     49 H          14.1010   11.5494   45.1861 H       1  UNL1        0.0584
     50 H          14.5246   11.5977   43.4618 H       1  UNL1        0.0584
     51 H          14.1224   16.5888   44.3089 H       1  UNL1        0.2100
     52 H          15.3383   13.3513   43.2683 H       1  UNL1        0.2100
     53 H          13.4993    9.6350   44.0042 H       1  UNL1        0.2095
@<TRIPOS>BOND
     1     1     2    2
     2     2     3    1
     3     2     4    1
     4     3     5   ar
     5     3     6   ar
     6     4     7    1
     7     5     8    1
     8     5     9   ar
     9     6    10    1
    10     6    11   ar
    11     7    12    1
    12     9    13   ar
    13    12    14   ar
    14    12    15   ar
    15    13    16    1
    16    14    17   ar
    17    15    18   ar
    18    16    19    1
    19    17    20   ar
    20    19    21    1
    21    19    22    1
    22    20    23    1
    23    21    24    1
    24    22    25    1
    25    22    26    1
    26    24    27    1
    27    24    28    1
    28    26    29    1
    29    27    30    1
    30    28    31    1
    31     7     8    1
    32    11    13   ar
    33    18    20   ar
    34    26    27    1
    35     4    32    1
    36     4    33    1
    37     7    34    1
    38     9    35    1
    39    10    36    1
    40    11    37    1
    41    14    38    1
    42    15    39    1
    43    17    40    1
    44    18    41    1
    45    19    42    1
    46    22    43    1
    47    23    44    1
    48    24    45    1
    49    25    46    1
    50    26    47    1
    51    27    48    1
    52    28    49    1
    53    28    50    1
    54    29    51    1
    55    30    52    1
    56    31    53    1
@<TRIPOS>SUBSTRUCTURE
     1 UNL1        1 TEMP              0 ****  ****    0 ROOT


##########                                Name:                 104
##########                DOCK_Rotatable_Bonds:                   0
##########                         Heavy_Atoms:                  18
##########                    Molecular_Weight:             246.306
##########                       Formal_Charge:         0.000299916
##########                     HBond_Acceptors:                   3
##########                        HBond_Donors:                   0
##########                    Continuous_Score:          -24.429377
##########               Continuous_vdw_energy:          -24.497398
##########                Continuous_es_energy:            0.068021
##########           Internal_energy_repulsive:           10.378322

@<TRIPOS>MOLECULE
104
 36 38 1 0 0
SMALL
GASTEIGER


@<TRIPOS>ATOM
      1 O          23.8395   11.2764   34.4788 O.2     1  UNL1       -0.2876
      2 C          23.6996   10.4158   35.3259 C.2     1  UNL1        0.1817
      3 C          24.3176   10.4966   36.6016 C.2     1  UNL1       -0.0003
      4 C          22.5550    9.5982   35.3106 C.2     1  UNL1       -0.0178
      5 C          24.0092    9.5456   37.5129 C.2     1  UNL1       -0.0131
      6 C          25.2049   11.7099   36.8585 C.3     1  UNL1       -0.0360
      7 C          22.4357    8.6681   36.2571 C.2     1  UNL1       -0.0704
      8 C          23.5353    8.3259   37.0252 C.3     1  UNL1        0.0114
      9 C          24.3461    9.7065   39.0039 C.3     1  UNL1        0.1291
     10 C          23.2928    7.2194   38.0641 C.3     1  UNL1       -0.0399
     11 C          24.5673    7.4644   36.2842 C.3     1  UNL1       -0.0522
     12 O          24.1080   11.0673   39.4463 O.3     1  UNL1       -0.4564
     13 C          23.4921    8.8478   39.9781 C.3     1  UNL1        0.0128
     14 C          22.5775    7.8109   39.2844 C.3     1  UNL1       -0.0447
     15 C          23.2858   11.1845   40.5015 C.2     1  UNL1        0.3109
     16 C          22.6715    9.8494   40.8161 C.3     1  UNL1        0.0601
     17 O          22.9378   12.2421   40.9848 O.2     1  UNL1       -0.2505
     18 C          22.7064    9.5339   42.3255 C.3     1  UNL1       -0.0519
     19 H          21.7557    9.7670   34.5927 H       1  UNL1        0.0653
     20 H          24.6016   12.6131   36.9730 H       1  UNL1        0.0279
     21 H          25.8908   11.8646   36.0223 H       1  UNL1        0.0279
     22 H          25.8296   11.5943   37.7453 H       1  UNL1        0.0279
     23 H          21.5347    8.0597   36.2913 H       1  UNL1        0.0582
     24 H          25.4050    9.4808   39.1597 H       1  UNL1        0.0785
     25 H          24.1981    6.7385   38.4564 H       1  UNL1        0.0277
     26 H          22.6585    6.4242   37.6587 H       1  UNL1        0.0277
     27 H          25.5008    7.3430   36.8433 H       1  UNL1        0.0241
     28 H          24.8598    7.9441   35.3473 H       1  UNL1        0.0241
     29 H          24.1983    6.4755   35.9888 H       1  UNL1        0.0241
     30 H          24.1931    8.3133   40.6252 H       1  UNL1        0.0348
     31 H          22.3188    7.0182   39.9908 H       1  UNL1        0.0270
     32 H          21.6426    8.2697   38.9536 H       1  UNL1        0.0270
     33 H          21.6327    9.8804   40.4779 H       1  UNL1        0.0415
     34 H          23.7285    9.5777   42.7088 H       1  UNL1        0.0238
     35 H          22.3040    8.5365   42.5169 H       1  UNL1        0.0238
     36 H          22.1016   10.2571   42.8777 H       1  UNL1        0.0238
@<TRIPOS>BOND
     1     1     2    2
     2     2     3    1
     3     2     4    1
     4     3     5    2
     5     3     6    1
     6     4     7    2
     7     5     8    1
     8     5     9    1
     9     8    10    1
    10     8    11    1
    11     9    12    1
    12     9    13    1
    13    10    14    1
    14    12    15    1
    15    13    16    1
    16    15    17    2
    17    16    18    1
    18     7     8    1
    19    13    14    1
    20    15    16    1
    21     4    19    1
    22     6    20    1
    23     6    21    1
    24     6    22    1
    25     7    23    1
    26     9    24    1
    27    10    25    1
    28    10    26    1
    29    11    27    1
    30    11    28    1
    31    11    29    1
    32    13    30    1
    33    14    31    1
    34    14    32    1
    35    16    33    1
    36    18    34    1
    37    18    35    1
    38    18    36    1
@<TRIPOS>SUBSTRUCTURE
     1 UNL1        1 TEMP              0 ****  ****    0 ROOT


##########                                Name:                 104
##########                DOCK_Rotatable_Bonds:                   0
##########                         Heavy_Atoms:                  18
##########                    Molecular_Weight:             246.306
##########                       Formal_Charge:         0.000299916
##########                     HBond_Acceptors:                   3
##########                        HBond_Donors:                   0
##########                    Continuous_Score:          -27.596634
##########               Continuous_vdw_energy:          -25.525297
##########                Continuous_es_energy:           -2.071337
##########           Internal_energy_repulsive:           10.378531

@<TRIPOS>MOLECULE
104
 36 38 1 0 0
SMALL
GASTEIGER


@<TRIPOS>ATOM
      1 O           5.3091   12.7222   40.8982 O.2     1  UNL1       -0.2876
      2 C           6.2734   13.3081   41.3507 C.2     1  UNL1        0.1817
      3 C           7.0636   12.7734   42.4021 C.2     1  UNL1       -0.0003
      4 C           6.9602   14.2439   40.5561 C.2     1  UNL1       -0.0178
      5 C           8.1802   13.4493   42.7580 C.2     1  UNL1       -0.0131
      6 C           6.6275   11.4279   42.9722 C.3     1  UNL1       -0.0360
      7 C           8.0139   14.8635   41.0861 C.2     1  UNL1       -0.0704
      8 C           8.2245   14.8114   42.4533 C.3     1  UNL1        0.0114
      9 C           9.2722   12.8144   43.6338 C.3     1  UNL1        0.1291
     10 C           9.4504   15.5879   42.9596 C.3     1  UNL1       -0.0399
     11 C           7.2716   15.7013   43.2635 C.3     1  UNL1       -0.0522
     12 O           9.4960   11.4300   43.2629 O.3     1  UNL1       -0.4564
     13 C          10.6813   13.4596   43.5169 C.3     1  UNL1        0.0128
     14 C          10.7198   14.7696   42.6951 C.3     1  UNL1       -0.0447
     15 C          10.7673   11.1237   42.9576 C.2     1  UNL1        0.3109
     16 C          11.5904   12.3797   42.8956 C.3     1  UNL1        0.0601
     17 O          11.1379   10.0294   42.5856 O.2     1  UNL1       -0.2505
     18 C          12.9343   12.2320   43.6379 C.3     1  UNL1       -0.0519
     19 H           6.6856   14.4042   39.5161 H       1  UNL1        0.0653
     20 H           6.8316   10.6229   42.2629 H       1  UNL1        0.0279
     21 H           5.5551   11.4317   43.1807 H       1  UNL1        0.0279
     22 H           7.1189   11.1919   43.9170 H       1  UNL1        0.0279
     23 H           8.5874   15.5534   40.4710 H       1  UNL1        0.0582
     24 H           8.9523   12.8366   44.6796 H       1  UNL1        0.0785
     25 H           9.4566   15.8036   44.0358 H       1  UNL1        0.0277
     26 H           9.5573   16.5463   42.4410 H       1  UNL1        0.0277
     27 H           7.3371   15.5240   44.3418 H       1  UNL1        0.0241
     28 H           6.2335   15.4811   43.0037 H       1  UNL1        0.0241
     29 H           7.3864   16.7742   43.0716 H       1  UNL1        0.0241
     30 H          11.0133   13.6796   44.5352 H       1  UNL1        0.0348
     31 H          11.6055   15.3488   42.9681 H       1  UNL1        0.0270
     32 H          10.7847   14.5609   41.6245 H       1  UNL1        0.0270
     33 H          11.7824   12.5922   41.8410 H       1  UNL1        0.0415
     34 H          12.7743   11.9376   44.6778 H       1  UNL1        0.0238
     35 H          13.4852   13.1751   43.6227 H       1  UNL1        0.0238
     36 H          13.5511   11.4693   43.1566 H       1  UNL1        0.0238
@<TRIPOS>BOND
     1     1     2    2
     2     2     3    1
     3     2     4    1
     4     3     5    2
     5     3     6    1
     6     4     7    2
     7     5     8    1
     8     5     9    1
     9     8    10    1
    10     8    11    1
    11     9    12    1
    12     9    13    1
    13    10    14    1
    14    12    15    1
    15    13    16    1
    16    15    17    2
    17    16    18    1
    18     7     8    1
    19    13    14    1
    20    15    16    1
    21     4    19    1
    22     6    20    1
    23     6    21    1
    24     6    22    1
    25     7    23    1
    26     9    24    1
    27    10    25    1
    28    10    26    1
    29    11    27    1
    30    11    28    1
    31    11    29    1
    32    13    30    1
    33    14    31    1
    34    14    32    1
    35    16    33    1
    36    18    34    1
    37    18    35    1
    38    18    36    1
@<TRIPOS>SUBSTRUCTURE
     1 UNL1        1 TEMP              0 ****  ****    0 ROOT


##########                                Name:                 104
##########                DOCK_Rotatable_Bonds:                   0
##########                         Heavy_Atoms:                  18
##########                    Molecular_Weight:             246.306
##########                       Formal_Charge:         0.000299916
##########                     HBond_Acceptors:                   3
##########                        HBond_Donors:                   0
##########                    Continuous_Score:          -25.421015
##########               Continuous_vdw_energy:          -24.832787
##########                Continuous_es_energy:           -0.588229
##########           Internal_energy_repulsive:           10.378970

@<TRIPOS>MOLECULE
104
 36 38 1 0 0
SMALL
GASTEIGER


@<TRIPOS>ATOM
      1 O           6.8182   10.2720   43.0581 O.2     1  UNL1       -0.2876
      2 C           6.1157   11.1955   43.4208 C.2     1  UNL1        0.1817
      3 C           5.9818   12.3909   42.6665 C.2     1  UNL1       -0.0003
      4 C           5.0291   10.9526   44.2803 C.2     1  UNL1       -0.0178
      5 C           5.0898   13.3119   43.0980 C.2     1  UNL1       -0.0131
      6 C           6.7934   12.4844   41.3789 C.3     1  UNL1       -0.0360
      7 C           4.2805   11.9897   44.6535 C.2     1  UNL1       -0.0704
      8 C           4.7432   13.2785   44.4504 C.3     1  UNL1        0.0114
      9 C           4.6217   14.4728   42.2059 C.3     1  UNL1        0.1291
     10 C           3.8139   14.3968   44.9482 C.3     1  UNL1       -0.0399
     11 C           5.8491   13.7028   45.4267 C.3     1  UNL1       -0.0522
     12 O           4.4195   14.0292   40.8397 O.3     1  UNL1       -0.4564
     13 C           3.2558   15.1046   42.5939 C.3     1  UNL1        0.0128
     14 C           2.6783   14.6056   43.9395 C.3     1  UNL1       -0.0447
     15 C           3.2011   14.2837   40.3358 C.2     1  UNL1        0.3109
     16 C           2.2998   14.7967   41.4235 C.3     1  UNL1        0.0601
     17 O           2.8348   13.9507   39.2275 O.2     1  UNL1       -0.2505
     18 C           1.4897   16.0301   40.9745 C.3     1  UNL1       -0.0519
     19 H           4.7624    9.9400   44.5736 H       1  UNL1        0.0653
     20 H           6.3798   11.8257   40.6122 H       1  UNL1        0.0279
     21 H           7.8291   12.1866   41.5585 H       1  UNL1        0.0279
     22 H           6.8349   13.4990   40.9803 H       1  UNL1        0.0279
     23 H           3.4068   11.8151   45.2774 H       1  UNL1        0.0582
     24 H           5.3891   15.2523   42.1981 H       1  UNL1        0.0785
     25 H           4.2868   15.3799   45.0687 H       1  UNL1        0.0277
     26 H           3.3614   14.1396   45.9115 H       1  UNL1        0.0277
     27 H           6.3187   14.6527   45.1513 H       1  UNL1        0.0241
     28 H           6.6624   12.9734   45.4198 H       1  UNL1        0.0241
     29 H           5.5288   13.7546   46.4736 H       1  UNL1        0.0241
     30 H           3.4159   16.1841   42.6648 H       1  UNL1        0.0348
     31 H           1.9611   15.3348   44.3248 H       1  UNL1        0.0270
     32 H           2.1450   13.6604   43.8126 H       1  UNL1        0.0270
     33 H           1.6117   13.9890   41.6852 H       1  UNL1        0.0415
     34 H           2.1527   16.8264   40.6283 H       1  UNL1        0.0238
     35 H           0.8864   16.4127   41.8009 H       1  UNL1        0.0238
     36 H           0.8167   15.7639   40.1561 H       1  UNL1        0.0238
@<TRIPOS>BOND
     1     1     2    2
     2     2     3    1
     3     2     4    1
     4     3     5    2
     5     3     6    1
     6     4     7    2
     7     5     8    1
     8     5     9    1
     9     8    10    1
    10     8    11    1
    11     9    12    1
    12     9    13    1
    13    10    14    1
    14    12    15    1
    15    13    16    1
    16    15    17    2
    17    16    18    1
    18     7     8    1
    19    13    14    1
    20    15    16    1
    21     4    19    1
    22     6    20    1
    23     6    21    1
    24     6    22    1
    25     7    23    1
    26     9    24    1
    27    10    25    1
    28    10    26    1
    29    11    27    1
    30    11    28    1
    31    11    29    1
    32    13    30    1
    33    14    31    1
    34    14    32    1
    35    16    33    1
    36    18    34    1
    37    18    35    1
    38    18    36    1
@<TRIPOS>SUBSTRUCTURE
     1 UNL1        1 TEMP              0 ****  ****    0 ROOT


##########                                Name:                 105
##########                DOCK_Rotatable_Bonds:                   2
##########                         Heavy_Atoms:                  18
##########                    Molecular_Weight:             246.219
##########                       Formal_Charge:        -0.000100002
##########                     HBond_Acceptors:                   5
##########                        HBond_Donors:                   0
##########                    Continuous_Score:          -29.693932
##########               Continuous_vdw_energy:          -28.950840
##########                Continuous_es_energy:           -0.743092
##########           Internal_energy_repulsive:            6.490185

@<TRIPOS>MOLECULE
105
 28 30 1 0 0
SMALL
GASTEIGER


@<TRIPOS>ATOM
      1 O          24.9628   14.2262   38.7407 O.2     1  UNL1       -0.2452
      2 C          24.5427   13.0888   38.7764 C.ar    1  UNL1        0.3373
      3 O          23.9787   12.5807   39.8939 O.2     1  UNL1       -0.4182
      4 C          24.5903   12.1604   37.6448 C.ar    1  UNL1        0.0237
      5 C          23.4884   11.2941   40.0592 C.ar    1  UNL1        0.1876
      6 C          24.0651   10.8309   37.7376 C.ar    1  UNL1       -0.0406
      7 C          22.9854   10.9797   41.3826 C.ar    1  UNL1        0.2063
      8 C          23.5033   10.3795   38.9305 C.ar    1  UNL1        0.0637
      9 O          22.8869   11.6349   42.5971 O.3     1  UNL1       -0.4884
     10 C          22.4326    9.6460   41.5057 C.ar    1  UNL1        0.1834
     11 C          22.9519    9.1017   39.1382 C.ar    1  UNL1        0.1417
     12 C          22.9992   13.0720   42.6750 C.3     1  UNL1        0.0791
     13 O          21.8943    9.0898   42.6501 O.2     1  UNL1       -0.4590
     14 C          22.4322    8.7950   40.4452 C.ar    1  UNL1        0.0662
     15 O          22.8151    8.0296   38.2583 O.3     1  UNL1       -0.4937
     16 C          21.5628    7.8177   42.1953 C.ar    1  UNL1        0.0934
     17 C          21.8621    7.5730   40.8745 C.ar    1  UNL1       -0.0125
     18 C          23.2129    7.9519   36.8728 C.3     1  UNL1        0.0788
     19 H          25.0400   12.5508   36.7373 H       1  UNL1        0.0689
     20 H          24.1488   10.2499   36.8314 H       1  UNL1        0.0628
     21 H          22.8903   13.3816   43.7175 H       1  UNL1        0.0660
     22 H          22.2112   13.5314   42.0718 H       1  UNL1        0.0660
     23 H          23.9793   13.3808   42.3005 H       1  UNL1        0.0660
     24 H          21.1140    7.1869   42.9537 H       1  UNL1        0.1030
     25 H          21.7088    6.6685   40.2952 H       1  UNL1        0.0656
     26 H          22.8952    6.9845   36.4745 H       1  UNL1        0.0660
     27 H          24.3012    8.0242   36.7986 H       1  UNL1        0.0660
     28 H          22.7267    8.7488   36.3035 H       1  UNL1        0.0660
@<TRIPOS>BOND
     1     1     2    2
     2     2     3   ar
     3     2     4   ar
     4     3     5   ar
     5     4     6   ar
     6     5     7   ar
     7     5     8   ar
     8     7     9    1
     9     7    10   ar
    10     8    11   ar
    11     9    12    1
    12    10    13   ar
    13    10    14   ar
    14    11    15    1
    15    13    16   ar
    16    14    17   ar
    17    15    18    1
    18     6     8   ar
    19    11    14   ar
    20    16    17   ar
    21     4    19    1
    22     6    20    1
    23    12    21    1
    24    12    22    1
    25    12    23    1
    26    16    24    1
    27    17    25    1
    28    18    26    1
    29    18    27    1
    30    18    28    1
@<TRIPOS>SUBSTRUCTURE
     1 UNL1        1 TEMP              0 ****  ****    0 ROOT


##########                                Name:                 105
##########                DOCK_Rotatable_Bonds:                   2
##########                         Heavy_Atoms:                  18
##########                    Molecular_Weight:             246.219
##########                       Formal_Charge:        -0.000100002
##########                     HBond_Acceptors:                   5
##########                        HBond_Donors:                   0
##########                    Continuous_Score:          -29.824379
##########               Continuous_vdw_energy:          -29.166958
##########                Continuous_es_energy:           -0.657422
##########           Internal_energy_repulsive:            6.474649

@<TRIPOS>MOLECULE
105
 28 30 1 0 0
SMALL
GASTEIGER


@<TRIPOS>ATOM
      1 O          25.3231   14.0300   38.6425 O.2     1  UNL1       -0.2452
      2 C          24.8712   12.9080   38.7338 C.ar    1  UNL1        0.3373
      3 O          24.2005   12.5060   39.8355 O.2     1  UNL1       -0.4182
      4 C          24.9902   11.8878   37.6898 C.ar    1  UNL1        0.0237
      5 C          23.6635   11.2477   40.0613 C.ar    1  UNL1        0.1876
      6 C          24.4235   10.5813   37.8443 C.ar    1  UNL1       -0.0406
      7 C          23.0412   11.0546   41.3571 C.ar    1  UNL1        0.2063
      8 C          23.7500   10.2420   39.0164 C.ar    1  UNL1        0.0637
      9 O          22.8570   11.8103   42.5010 O.3     1  UNL1       -0.4884
     10 C          22.4443    9.7468   41.5394 C.ar    1  UNL1        0.1834
     11 C          23.1488    8.9970   39.2784 C.ar    1  UNL1        0.1417
     12 C          22.9853   13.2479   42.4680 C.3     1  UNL1        0.0791
     13 O          21.7956    9.2986   42.6740 O.2     1  UNL1       -0.4590
     14 C          22.5115    8.8106   40.5556 C.ar    1  UNL1        0.0662
     15 O          23.0589    7.8583   38.4800 O.3     1  UNL1       -0.4937
     16 C          21.4701    7.9998   42.2968 C.ar    1  UNL1        0.0934
     17 C          21.8743    7.6400   41.0314 C.ar    1  UNL1       -0.0125
     18 C          23.1987    7.7561   37.0468 C.3     1  UNL1        0.0788
     19 H          25.5260   12.1923   36.7964 H       1  UNL1        0.0689
     20 H          24.5686    9.9253   36.9990 H       1  UNL1        0.0628
     21 H          22.7992   13.6450   43.4689 H       1  UNL1        0.0660
     22 H          22.2548   13.6619   41.7673 H       1  UNL1        0.0660
     23 H          23.9967   13.5153   42.1489 H       1  UNL1        0.0660
     24 H          20.9415    7.4433   43.0619 H       1  UNL1        0.1030
     25 H          21.7468    6.6938   40.5164 H       1  UNL1        0.0656
     26 H          23.0041    6.7213   36.7523 H       1  UNL1        0.0660
     27 H          24.2195    8.0197   36.7578 H       1  UNL1        0.0660
     28 H          22.4710    8.4089   36.5570 H       1  UNL1        0.0660
@<TRIPOS>BOND
     1     1     2    2
     2     2     3   ar
     3     2     4   ar
     4     3     5   ar
     5     4     6   ar
     6     5     7   ar
     7     5     8   ar
     8     7     9    1
     9     7    10   ar
    10     8    11   ar
    11     9    12    1
    12    10    13   ar
    13    10    14   ar
    14    11    15    1
    15    13    16   ar
    16    14    17   ar
    17    15    18    1
    18     6     8   ar
    19    11    14   ar
    20    16    17   ar
    21     4    19    1
    22     6    20    1
    23    12    21    1
    24    12    22    1
    25    12    23    1
    26    16    24    1
    27    17    25    1
    28    18    26    1
    29    18    27    1
    30    18    28    1
@<TRIPOS>SUBSTRUCTURE
     1 UNL1        1 TEMP              0 ****  ****    0 ROOT


##########                                Name:                 105
##########                DOCK_Rotatable_Bonds:                   2
##########                         Heavy_Atoms:                  18
##########                    Molecular_Weight:             246.219
##########                       Formal_Charge:        -0.000100002
##########                     HBond_Acceptors:                   5
##########                        HBond_Donors:                   0
##########                    Continuous_Score:          -29.063137
##########               Continuous_vdw_energy:          -28.768579
##########                Continuous_es_energy:           -0.294558
##########           Internal_energy_repulsive:           73.906586

@<TRIPOS>MOLECULE
105
 28 30 1 0 0
SMALL
GASTEIGER


@<TRIPOS>ATOM
      1 O          23.0485   14.0700   43.3877 O.2     1  UNL1       -0.2452
      2 C          23.2271   13.4138   42.3832 C.ar    1  UNL1        0.3373
      3 O          22.8025   12.1344   42.2924 O.2     1  UNL1       -0.4182
      4 C          23.8990   13.9167   41.1831 C.ar    1  UNL1        0.0237
      5 C          22.9711   11.2839   41.2103 C.ar    1  UNL1        0.1876
      6 C          24.0699   13.1021   40.0172 C.ar    1  UNL1       -0.0406
      7 C          22.4724    9.9339   41.3901 C.ar    1  UNL1        0.2063
      8 C          23.6077   11.7873   40.0054 C.ar    1  UNL1        0.0637
      9 O          21.8744    9.2158   42.4102 O.3     1  UNL1       -0.4884
     10 C          22.6166    9.0880   40.2225 C.ar    1  UNL1        0.1834
     11 C          23.7124   10.8974   38.9203 C.ar    1  UNL1        0.1417
     12 C          21.5072    7.8319   42.2257 C.3     1  UNL1        0.0791
     13 O          22.2329    7.7643   40.1232 O.2     1  UNL1       -0.4590
     14 C          23.1983    9.5634   39.0893 C.ar    1  UNL1        0.0662
     15 O          24.2534   11.0905   37.6506 O.3     1  UNL1       -0.4937
     16 C          22.6327    7.4698   38.8240 C.ar    1  UNL1        0.0934
     17 C          23.2240    8.5103   38.1444 C.ar    1  UNL1       -0.0125
     18 C          24.8688   12.2795   37.1107 C.3     1  UNL1        0.0788
     19 H          24.2472   14.9434   41.2367 H       1  UNL1        0.0689
     20 H          24.5692   13.5926   39.1951 H       1  UNL1        0.0628
     21 H          21.0559    7.4573   43.1479 H       1  UNL1        0.0660
     22 H          22.4010    7.2471   41.9908 H       1  UNL1        0.0660
     23 H          20.7876    7.7530   41.4060 H       1  UNL1        0.0660
     24 H          22.4252    6.4491   38.5248 H       1  UNL1        0.1030
     25 H          23.6210    8.5294   37.1350 H       1  UNL1        0.0656
     26 H          25.1220   12.0939   36.0634 H       1  UNL1        0.0660
     27 H          25.7865   12.5007   37.6622 H       1  UNL1        0.0660
     28 H          24.1669   13.1161   37.1649 H       1  UNL1        0.0660
@<TRIPOS>BOND
     1     1     2    2
     2     2     3   ar
     3     2     4   ar
     4     3     5   ar
     5     4     6   ar
     6     5     7   ar
     7     5     8   ar
     8     7     9    1
     9     7    10   ar
    10     8    11   ar
    11     9    12    1
    12    10    13   ar
    13    10    14   ar
    14    11    15    1
    15    13    16   ar
    16    14    17   ar
    17    15    18    1
    18     6     8   ar
    19    11    14   ar
    20    16    17   ar
    21     4    19    1
    22     6    20    1
    23    12    21    1
    24    12    22    1
    25    12    23    1
    26    16    24    1
    27    17    25    1
    28    18    26    1
    29    18    27    1
    30    18    28    1
@<TRIPOS>SUBSTRUCTURE
     1 UNL1        1 TEMP              0 ****  ****    0 ROOT


##########                                Name:                 106
##########                DOCK_Rotatable_Bonds:                   7
##########                         Heavy_Atoms:                  25
##########                    Molecular_Weight:             337.462
##########                       Formal_Charge:        -7.45058e-09
##########                     HBond_Acceptors:                   3
##########                        HBond_Donors:                   1
##########                    Continuous_Score:          -38.115318
##########               Continuous_vdw_energy:          -36.418808
##########                Continuous_es_energy:           -1.696509
##########           Internal_energy_repulsive:           15.106143

@<TRIPOS>MOLECULE
106
 52 54 1 0 0
SMALL
GASTEIGER


@<TRIPOS>ATOM
      1 O          17.2566   14.2367   45.3222 O.2     1  UNL1       -0.2920
      2 C          17.1462   14.0034   44.1347 C.2     1  UNL1        0.1646
      3 C          18.2912   14.3183   43.1919 C.ar    1  UNL1        0.0174
      4 C          15.8195   13.4301   43.6408 C.3     1  UNL1        0.0261
      5 C          19.5493   14.6102   43.7384 C.ar    1  UNL1       -0.0513
      6 C          18.1599   14.3342   41.7944 C.ar    1  UNL1       -0.0513
      7 C          14.6241   13.8209   44.5687 C.3     1  UNL1        0.0174
      8 C          20.6386   14.9092   42.9205 C.ar    1  UNL1       -0.0611
      9 C          19.2498   14.6305   40.9770 C.ar    1  UNL1       -0.0611
     10 N          13.3675   13.0235   44.3348 N.3     1  UNL1       -0.2990
     11 C          14.3217   15.3375   44.5138 C.3     1  UNL1       -0.0369
     12 C          20.4901   14.9189   41.5383 C.ar    1  UNL1       -0.0617
     13 C          12.5064   13.4109   43.1576 C.3     1  UNL1        0.0131
     14 C          13.6160   11.5616   44.4687 C.3     1  UNL1       -0.0122
     15 C          13.6830   15.7104   43.1708 C.3     1  UNL1       -0.0502
     16 C          12.3570   14.9561   43.0326 C.3     1  UNL1       -0.0372
     17 C          11.0701   12.7910   43.2802 C.3     1  UNL1       -0.0070
     18 C          10.2063   12.9118   41.9916 C.3     1  UNL1        0.0816
     19 O          10.8020   12.1004   40.9752 O.3     1  UNL1       -0.3871
     20 C           8.7191   12.5686   42.1228 C.ar    1  UNL1       -0.0191
     21 C           8.2199   11.5782   42.9793 C.ar    1  UNL1       -0.0561
     22 C           7.8096   13.3306   41.3804 C.ar    1  UNL1       -0.0561
     23 C           6.8458   11.3646   43.0903 C.ar    1  UNL1       -0.0614
     24 C           6.4386   13.1165   41.4857 C.ar    1  UNL1       -0.0614
     25 C           5.9527   12.1333   42.3446 C.ar    1  UNL1       -0.0617
     26 H          15.9415   12.3458   43.6394 H       1  UNL1        0.0360
     27 H          15.5928   13.7016   42.6136 H       1  UNL1        0.0360
     28 H          19.6935   14.6121   44.8156 H       1  UNL1        0.0624
     29 H          17.2188   14.1142   41.3044 H       1  UNL1        0.0624
     30 H          14.9515   13.6095   45.5912 H       1  UNL1        0.0467
     31 H          21.6046   15.1355   43.3648 H       1  UNL1        0.0618
     32 H          19.1317   14.6359   39.8973 H       1  UNL1        0.0618
     33 H          15.2235   15.9324   44.6732 H       1  UNL1        0.0280
     34 H          13.6351   15.5956   45.3240 H       1  UNL1        0.0280
     35 H          21.3391   15.1504   40.8988 H       1  UNL1        0.0618
     36 H          12.9805   13.0394   42.2444 H       1  UNL1        0.0463
     37 H          14.1223   11.3602   45.4169 H       1  UNL1        0.0391
     38 H          14.2433   11.2020   43.6489 H       1  UNL1        0.0391
     39 H          12.6883   10.9894   44.4653 H       1  UNL1        0.0391
     40 H          14.3434   15.4648   42.3376 H       1  UNL1        0.0266
     41 H          13.4974   16.7865   43.1336 H       1  UNL1        0.0266
     42 H          11.6665   15.3209   43.7982 H       1  UNL1        0.0280
     43 H          11.9357   15.2161   42.0600 H       1  UNL1        0.0280
     44 H          10.5484   13.2838   44.1051 H       1  UNL1        0.0309
     45 H          11.1324   11.7306   43.5281 H       1  UNL1        0.0309
     46 H          10.2333   13.9490   41.6534 H       1  UNL1        0.0644
     47 H          10.8698   11.1900   41.3140 H       1  UNL1        0.2102
     48 H           8.8900   10.9694   43.5802 H       1  UNL1        0.0621
     49 H           8.1752   14.1099   40.7148 H       1  UNL1        0.0621
     50 H           6.4661   10.6014   43.7641 H       1  UNL1        0.0618
     51 H           5.7458   13.7199   40.9053 H       1  UNL1        0.0618
     52 H           4.8821   11.9685   42.4359 H       1  UNL1        0.0618
@<TRIPOS>BOND
     1     1     2    2
     2     2     3    1
     3     2     4    1
     4     3     5   ar
     5     3     6   ar
     6     4     7    1
     7     5     8   ar
     8     6     9   ar
     9     7    10    1
    10     7    11    1
    11     8    12   ar
    12    10    13    1
    13    10    14    1
    14    11    15    1
    15    13    16    1
    16    13    17    1
    17    17    18    1
    18    18    19    1
    19    18    20    1
    20    20    21   ar
    21    20    22   ar
    22    21    23   ar
    23    22    24   ar
    24    23    25   ar
    25     9    12   ar
    26    15    16    1
    27    24    25   ar
    28     4    26    1
    29     4    27    1
    30     5    28    1
    31     6    29    1
    32     7    30    1
    33     8    31    1
    34     9    32    1
    35    11    33    1
    36    11    34    1
    37    12    35    1
    38    13    36    1
    39    14    37    1
    40    14    38    1
    41    14    39    1
    42    15    40    1
    43    15    41    1
    44    16    42    1
    45    16    43    1
    46    17    44    1
    47    17    45    1
    48    18    46    1
    49    19    47    1
    50    21    48    1
    51    22    49    1
    52    23    50    1
    53    24    51    1
    54    25    52    1
@<TRIPOS>SUBSTRUCTURE
     1 UNL1        1 TEMP              0 ****  ****    0 ROOT


##########                                Name:                 106
##########                DOCK_Rotatable_Bonds:                   7
##########                         Heavy_Atoms:                  25
##########                    Molecular_Weight:             337.462
##########                       Formal_Charge:        -7.45058e-09
##########                     HBond_Acceptors:                   3
##########                        HBond_Donors:                   1
##########                    Continuous_Score:          -38.227104
##########               Continuous_vdw_energy:          -35.695271
##########                Continuous_es_energy:           -2.531832
##########           Internal_energy_repulsive:           14.340243

@<TRIPOS>MOLECULE
106
 52 54 1 0 0
SMALL
GASTEIGER


@<TRIPOS>ATOM
      1 O          17.2757   14.2060   45.2110 O.2     1  UNL1       -0.2920
      2 C          17.1028   14.0707   44.0158 C.2     1  UNL1        0.1646
      3 C          18.1454   14.5769   43.0382 C.ar    1  UNL1        0.0174
      4 C          15.8012   13.4195   43.5526 C.3     1  UNL1        0.0261
      5 C          19.1744   15.3987   43.5204 C.ar    1  UNL1       -0.0513
      6 C          18.1365   14.2668   41.6691 C.ar    1  UNL1       -0.0513
      7 C          14.6047   13.7478   44.5031 C.3     1  UNL1        0.0174
      8 C          20.1596   15.8956   42.6677 C.ar    1  UNL1       -0.0611
      9 C          19.1233   14.7615   40.8174 C.ar    1  UNL1       -0.0611
     10 N          13.3647   12.9311   44.2483 N.3     1  UNL1       -0.2990
     11 C          14.2676   15.2580   44.5073 C.3     1  UNL1       -0.0369
     12 C          20.1356   15.5767   41.3148 C.ar    1  UNL1       -0.0617
     13 C          12.4857   13.3423   43.0926 C.3     1  UNL1        0.0131
     14 C          13.6473   11.4713   44.3254 C.3     1  UNL1       -0.0122
     15 C          13.6099   15.6661   43.1838 C.3     1  UNL1       -0.0502
     16 C          12.3002   14.8873   43.0267 C.3     1  UNL1       -0.0372
     17 C          11.0649   12.6855   43.2020 C.3     1  UNL1       -0.0070
     18 C          10.2165   12.7694   41.9002 C.3     1  UNL1        0.0816
     19 O          10.6826   11.7635   40.9962 O.3     1  UNL1       -0.3871
     20 C           8.6968   12.6595   42.0584 C.ar    1  UNL1       -0.0191
     21 C           7.7811   13.4741   41.3788 C.ar    1  UNL1       -0.0561
     22 C           8.2026   11.6482   42.8905 C.ar    1  UNL1       -0.0561
     23 C           6.4086   13.2734   41.5273 C.ar    1  UNL1       -0.0614
     24 C           6.8339   11.4491   43.0441 C.ar    1  UNL1       -0.0614
     25 C           5.9323   12.2607   42.3593 C.ar    1  UNL1       -0.0617
     26 H          15.9848   12.3439   43.5546 H       1  UNL1        0.0360
     27 H          15.5384   13.6708   42.5289 H       1  UNL1        0.0360
     28 H          19.2165   15.6660   44.5731 H       1  UNL1        0.0624
     29 H          17.3745   13.6345   41.2293 H       1  UNL1        0.0624
     30 H          14.9449   13.5059   45.5146 H       1  UNL1        0.0467
     31 H          20.9468   16.5334   43.0616 H       1  UNL1        0.0618
     32 H          19.1033   14.5097   39.7609 H       1  UNL1        0.0618
     33 H          15.1569   15.8671   44.6825 H       1  UNL1        0.0280
     34 H          13.5817   15.4699   45.3316 H       1  UNL1        0.0280
     35 H          20.9043   15.9621   40.6485 H       1  UNL1        0.0618
     36 H          12.9608   13.0163   42.1628 H       1  UNL1        0.0463
     37 H          14.1654   11.2463   45.2617 H       1  UNL1        0.0391
     38 H          14.2761   11.1570   43.4882 H       1  UNL1        0.0391
     39 H          12.7328   10.8785   44.3070 H       1  UNL1        0.0391
     40 H          14.2690   15.4671   42.3374 H       1  UNL1        0.0266
     41 H          13.3996   16.7383   43.1883 H       1  UNL1        0.0266
     42 H          11.6078   15.2072   43.8105 H       1  UNL1        0.0280
     43 H          11.8656   15.1737   42.0676 H       1  UNL1        0.0280
     44 H          10.5185   13.1729   44.0141 H       1  UNL1        0.0309
     45 H          11.1518   11.6298   43.4624 H       1  UNL1        0.0309
     46 H          10.3878   13.7429   41.4381 H       1  UNL1        0.0644
     47 H          11.6550   11.7405   41.0422 H       1  UNL1        0.2102
     48 H           8.1212   14.2652   40.7163 H       1  UNL1        0.0621
     49 H           8.8961   10.9996   43.4218 H       1  UNL1        0.0621
     50 H           5.7049   13.9027   40.9893 H       1  UNL1        0.0618
     51 H           6.4670   10.6566   43.6910 H       1  UNL1        0.0618
     52 H           4.8624   12.1029   42.4703 H       1  UNL1        0.0618
@<TRIPOS>BOND
     1     1     2    2
     2     2     3    1
     3     2     4    1
     4     3     5   ar
     5     3     6   ar
     6     4     7    1
     7     5     8   ar
     8     6     9   ar
     9     7    10    1
    10     7    11    1
    11     8    12   ar
    12    10    13    1
    13    10    14    1
    14    11    15    1
    15    13    16    1
    16    13    17    1
    17    17    18    1
    18    18    19    1
    19    18    20    1
    20    20    21   ar
    21    20    22   ar
    22    21    23   ar
    23    22    24   ar
    24    23    25   ar
    25     9    12   ar
    26    15    16    1
    27    24    25   ar
    28     4    26    1
    29     4    27    1
    30     5    28    1
    31     6    29    1
    32     7    30    1
    33     8    31    1
    34     9    32    1
    35    11    33    1
    36    11    34    1
    37    12    35    1
    38    13    36    1
    39    14    37    1
    40    14    38    1
    41    14    39    1
    42    15    40    1
    43    15    41    1
    44    16    42    1
    45    16    43    1
    46    17    44    1
    47    17    45    1
    48    18    46    1
    49    19    47    1
    50    21    48    1
    51    22    49    1
    52    23    50    1
    53    24    51    1
    54    25    52    1
@<TRIPOS>SUBSTRUCTURE
     1 UNL1        1 TEMP              0 ****  ****    0 ROOT


##########                                Name:                 106
##########                DOCK_Rotatable_Bonds:                   7
##########                         Heavy_Atoms:                  25
##########                    Molecular_Weight:             337.462
##########                       Formal_Charge:        -7.45058e-09
##########                     HBond_Acceptors:                   3
##########                        HBond_Donors:                   1
##########                    Continuous_Score:          -37.470001
##########               Continuous_vdw_energy:          -34.959869
##########                Continuous_es_energy:           -2.510133
##########           Internal_energy_repulsive:           13.849697

@<TRIPOS>MOLECULE
106
 52 54 1 0 0
SMALL
GASTEIGER


@<TRIPOS>ATOM
      1 O          17.2676   14.2533   45.1262 O.2     1  UNL1       -0.2920
      2 C          17.0447   14.0564   43.9479 C.2     1  UNL1        0.1646
      3 C          18.0102   14.5721   42.8986 C.ar    1  UNL1        0.0174
      4 C          15.7592   13.3189   43.5786 C.3     1  UNL1        0.0261
      5 C          18.9882   15.4999   43.2849 C.ar    1  UNL1       -0.0513
      6 C          17.9779   14.1698   41.5541 C.ar    1  UNL1       -0.0513
      7 C          14.5700   13.6954   44.5203 C.3     1  UNL1        0.0174
      8 C          19.9016   16.0105   42.3630 C.ar    1  UNL1       -0.0611
      9 C          18.8929   14.6784   40.6332 C.ar    1  UNL1       -0.0611
     10 N          13.3139   12.8970   44.2869 N.3     1  UNL1       -0.2990
     11 C          14.2627   15.2117   44.4852 C.3     1  UNL1       -0.0369
     12 C          19.8554   15.5995   41.0358 C.ar    1  UNL1       -0.0617
     13 C          12.4426   13.2954   43.1208 C.3     1  UNL1        0.0131
     14 C          13.5677   11.4344   44.4018 C.3     1  UNL1       -0.0122
     15 C          13.6125   15.5981   43.1517 C.3     1  UNL1       -0.0502
     16 C          12.2876   14.8415   43.0150 C.3     1  UNL1       -0.0372
     17 C          11.0091   12.6699   43.2474 C.3     1  UNL1       -0.0070
     18 C          10.1108   12.8632   41.9915 C.3     1  UNL1        0.0816
     19 O          10.6707   12.1007   40.9185 O.3     1  UNL1       -0.3871
     20 C           8.6248   12.5248   42.1470 C.ar    1  UNL1       -0.0191
     21 C           8.1392   11.5122   42.9852 C.ar    1  UNL1       -0.0561
     22 C           7.7034   13.3139   41.4489 C.ar    1  UNL1       -0.0561
     23 C           6.7666   11.3033   43.1216 C.ar    1  UNL1       -0.0614
     24 C           6.3339   13.1045   41.5795 C.ar    1  UNL1       -0.0614
     25 C           5.8615   12.0990   42.4200 C.ar    1  UNL1       -0.0617
     26 H          15.9821   12.2556   43.6790 H       1  UNL1        0.0360
     27 H          15.4677   13.4614   42.5418 H       1  UNL1        0.0360
     28 H          19.0460   15.8405   44.3155 H       1  UNL1        0.0624
     29 H          17.2525   13.4536   41.1871 H       1  UNL1        0.0624
     30 H          14.9059   13.4731   45.5377 H       1  UNL1        0.0467
     31 H          20.6500   16.7310   42.6830 H       1  UNL1        0.0618
     32 H          18.8559   14.3547   39.5971 H       1  UNL1        0.0618
     33 H          15.1640   15.8072   44.6446 H       1  UNL1        0.0280
     34 H          13.5818   15.4582   45.3038 H       1  UNL1        0.0280
     35 H          20.5681   15.9955   40.3158 H       1  UNL1        0.0618
     36 H          12.9106   12.9360   42.1999 H       1  UNL1        0.0463
     37 H          14.0819   11.2236   45.3436 H       1  UNL1        0.0391
     38 H          14.1896   11.0862   43.5730 H       1  UNL1        0.0391
     39 H          12.6416   10.8596   44.3988 H       1  UNL1        0.0391
     40 H          14.2670   15.3642   42.3106 H       1  UNL1        0.0266
     41 H          13.4234   16.6739   43.1284 H       1  UNL1        0.0266
     42 H          11.6022   15.1954   43.7901 H       1  UNL1        0.0280
     43 H          11.8581   15.1115   42.0487 H       1  UNL1        0.0280
     44 H          10.5107   13.1155   44.1127 H       1  UNL1        0.0309
     45 H          11.0761   11.5971   43.4333 H       1  UNL1        0.0309
     46 H          10.1376   13.9161   41.7063 H       1  UNL1        0.0644
     47 H          11.6333   12.2479   40.9110 H       1  UNL1        0.2102
     48 H           8.8189   10.8819   43.5520 H       1  UNL1        0.0621
     49 H           8.0587   14.1105   40.7983 H       1  UNL1        0.0621
     50 H           6.3975   10.5226   43.7812 H       1  UNL1        0.0618
     51 H           5.6318   13.7290   41.0334 H       1  UNL1        0.0618
     52 H           4.7922   11.9377   42.5310 H       1  UNL1        0.0618
@<TRIPOS>BOND
     1     1     2    2
     2     2     3    1
     3     2     4    1
     4     3     5   ar
     5     3     6   ar
     6     4     7    1
     7     5     8   ar
     8     6     9   ar
     9     7    10    1
    10     7    11    1
    11     8    12   ar
    12    10    13    1
    13    10    14    1
    14    11    15    1
    15    13    16    1
    16    13    17    1
    17    17    18    1
    18    18    19    1
    19    18    20    1
    20    20    21   ar
    21    20    22   ar
    22    21    23   ar
    23    22    24   ar
    24    23    25   ar
    25     9    12   ar
    26    15    16    1
    27    24    25   ar
    28     4    26    1
    29     4    27    1
    30     5    28    1
    31     6    29    1
    32     7    30    1
    33     8    31    1
    34     9    32    1
    35    11    33    1
    36    11    34    1
    37    12    35    1
    38    13    36    1
    39    14    37    1
    40    14    38    1
    41    14    39    1
    42    15    40    1
    43    15    41    1
    44    16    42    1
    45    16    43    1
    46    17    44    1
    47    17    45    1
    48    18    46    1
    49    19    47    1
    50    21    48    1
    51    22    49    1
    52    23    50    1
    53    24    51    1
    54    25    52    1
@<TRIPOS>SUBSTRUCTURE
     1 UNL1        1 TEMP              0 ****  ****    0 ROOT


##########                                Name:                 110
##########                DOCK_Rotatable_Bonds:                  10
##########                         Heavy_Atoms:                  31
##########                    Molecular_Weight:             432.384
##########                       Formal_Charge:         9.97782e-05
##########                     HBond_Acceptors:                  10
##########                        HBond_Donors:                   6
##########                    Continuous_Score:          -43.924614
##########               Continuous_vdw_energy:          -39.196110
##########                Continuous_es_energy:           -4.728503
##########           Internal_energy_repulsive:            9.169282

@<TRIPOS>MOLECULE
110
 51 54 1 0 0
SMALL
GASTEIGER


@<TRIPOS>ATOM
      1 O          18.8121   14.6265   45.1988 O.2     1  UNL1       -0.2869
      2 C          18.2019   14.4975   44.1544 C.ar    1  UNL1        0.1966
      3 C          16.8091   14.0381   44.0614 C.ar    1  UNL1        0.1055
      4 C          18.7851   14.8042   42.8273 C.ar    1  UNL1        0.0288
      5 C          16.3059   13.9244   42.7813 C.ar    1  UNL1        0.1462
      6 C          15.9377   13.7526   45.1753 C.ar    1  UNL1        0.1347
      7 C          18.1930   14.6546   41.8793 C.ar    1  UNL1        0.1392
      8 O          17.1511   14.2516   41.7229 O.2     1  UNL1       -0.4544
      9 C          14.9712   13.3830   42.5853 C.ar    1  UNL1        0.0235
     10 O          16.3837   13.8855   46.4531 O.3     1  UNL1       -0.5058
     11 C          14.6373   13.3182   44.9709 C.ar    1  UNL1        0.0226
     12 C          18.8671   15.1975   40.6467 C.ar    1  UNL1        0.0176
     13 C          14.1575   13.0818   43.6784 C.ar    1  UNL1        0.1310
     14 C          18.3008   16.2683   39.9300 C.ar    1  UNL1       -0.0476
     15 C          20.0466   14.6072   40.1584 C.ar    1  UNL1       -0.0476
     16 O          12.9227   12.4755   43.4708 O.3     1  UNL1       -0.4606
     17 C          18.9001   16.7291   38.7555 C.ar    1  UNL1       -0.0195
     18 C          20.6352   15.0746   38.9833 C.ar    1  UNL1       -0.0195
     19 C          12.2677   12.4809   42.1640 C.3     1  UNL1        0.2308
     20 C          20.0657   16.1313   38.2787 C.ar    1  UNL1        0.1169
     21 O          11.9147   13.8318   41.7555 O.3     1  UNL1       -0.3313
     22 C          10.9674   11.6512   42.1902 C.3     1  UNL1        0.1454
     23 O          20.6559   16.5608   37.1241 O.3     1  UNL1       -0.5068
     24 C          11.0341   14.5431   42.6626 C.3     1  UNL1        0.1140
     25 O          11.2517   10.2958   42.5402 O.3     1  UNL1       -0.3829
     26 C           9.9528   12.2853   43.1765 C.3     1  UNL1        0.1152
     27 C           9.6949   13.7654   42.8055 C.3     1  UNL1        0.1120
     28 C          10.8854   16.0025   42.1657 C.3     1  UNL1        0.0731
     29 O           8.7002   11.6051   43.0873 O.3     1  UNL1       -0.3864
     30 O           8.9341   13.7838   41.5888 O.3     1  UNL1       -0.3865
     31 O          12.1060   16.5109   41.6241 O.3     1  UNL1       -0.3924
     32 H          19.7918   15.2078   42.8833 H       1  UNL1        0.0693
     33 H          14.6173   13.1853   41.5750 H       1  UNL1        0.0691
     34 H          15.6276   13.7153   47.0556 H       1  UNL1        0.2922
     35 H          14.0185   13.1308   45.8426 H       1  UNL1        0.0691
     36 H          17.3855   16.7407   40.2778 H       1  UNL1        0.0626
     37 H          20.5058   13.7733   40.6825 H       1  UNL1        0.0626
     38 H          18.4464   17.5526   38.2087 H       1  UNL1        0.0654
     39 H          21.5433   14.6064   38.6111 H       1  UNL1        0.0654
     40 H          12.9713   12.0687   41.4236 H       1  UNL1        0.1084
     41 H          10.5425   11.6609   41.1832 H       1  UNL1        0.0683
     42 H          21.4128   15.9965   36.8815 H       1  UNL1        0.2921
     43 H          11.5159   14.5816   43.6447 H       1  UNL1        0.0647
     44 H          11.6005   10.2877   43.4453 H       1  UNL1        0.2102
     45 H          10.3412   12.2176   44.1970 H       1  UNL1        0.0648
     46 H           9.1015   14.2324   43.5963 H       1  UNL1        0.0647
     47 H          10.6027   16.6368   43.0107 H       1  UNL1        0.0584
     48 H          10.0987   16.0594   41.4098 H       1  UNL1        0.0584
     49 H           8.0520   12.2442   43.4581 H       1  UNL1        0.2100
     50 H           8.2900   14.5125   41.6538 H       1  UNL1        0.2100
     51 H          12.7533   16.5536   42.3481 H       1  UNL1        0.2095
@<TRIPOS>BOND
     1     1     2    2
     2     2     3   ar
     3     2     4   ar
     4     3     5   ar
     5     3     6   ar
     6     4     7   ar
     7     5     8   ar
     8     5     9   ar
     9     6    10    1
    10     6    11   ar
    11     7    12    1
    12     9    13   ar
    13    12    14   ar
    14    12    15   ar
    15    13    16    1
    16    14    17   ar
    17    15    18   ar
    18    16    19    1
    19    17    20   ar
    20    19    21    1
    21    19    22    1
    22    20    23    1
    23    21    24    1
    24    22    25    1
    25    22    26    1
    26    24    27    1
    27    24    28    1
    28    26    29    1
    29    27    30    1
    30    28    31    1
    31     7     8   ar
    32    11    13   ar
    33    18    20   ar
    34    26    27    1
    35     4    32    1
    36     9    33    1
    37    10    34    1
    38    11    35    1
    39    14    36    1
    40    15    37    1
    41    17    38    1
    42    18    39    1
    43    19    40    1
    44    22    41    1
    45    23    42    1
    46    24    43    1
    47    25    44    1
    48    26    45    1
    49    27    46    1
    50    28    47    1
    51    28    48    1
    52    29    49    1
    53    30    50    1
    54    31    51    1
@<TRIPOS>SUBSTRUCTURE
     1 UNL1        1 TEMP              0 ****  ****    0 ROOT


##########                                Name:                 110
##########                DOCK_Rotatable_Bonds:                  10
##########                         Heavy_Atoms:                  31
##########                    Molecular_Weight:             432.384
##########                       Formal_Charge:         9.97782e-05
##########                     HBond_Acceptors:                  10
##########                        HBond_Donors:                   6
##########                    Continuous_Score:          -43.355625
##########               Continuous_vdw_energy:          -39.330975
##########                Continuous_es_energy:           -4.024649
##########           Internal_energy_repulsive:            9.146455

@<TRIPOS>MOLECULE
110
 51 54 1 0 0
SMALL
GASTEIGER


@<TRIPOS>ATOM
      1 O          18.8519   14.5705   45.2099 O.2     1  UNL1       -0.2869
      2 C          18.2757   14.4000   44.1524 C.ar    1  UNL1        0.1966
      3 C          16.8790   13.9585   44.0331 C.ar    1  UNL1        0.1055
      4 C          18.9090   14.6320   42.8331 C.ar    1  UNL1        0.0288
      5 C          16.4179   13.7900   42.7432 C.ar    1  UNL1        0.1462
      6 C          15.9653   13.7417   45.1284 C.ar    1  UNL1        0.1347
      7 C          18.3471   14.4453   41.8733 C.ar    1  UNL1        0.1392
      8 O          17.3043   14.0516   41.7005 O.2     1  UNL1       -0.4544
      9 C          15.0813   13.2607   42.5272 C.ar    1  UNL1        0.0235
     10 O          16.3695   13.9301   46.4131 O.3     1  UNL1       -0.5058
     11 C          14.6652   13.3183   44.9002 C.ar    1  UNL1        0.0226
     12 C          19.0722   14.9165   40.6403 C.ar    1  UNL1        0.0176
     13 C          14.2258   13.0264   43.6045 C.ar    1  UNL1        0.1310
     14 C          20.3716   14.4593   40.3513 C.ar    1  UNL1       -0.0476
     15 C          18.4845   15.8652   39.7843 C.ar    1  UNL1       -0.0476
     16 O          12.9885   12.4301   43.3836 O.3     1  UNL1       -0.4606
     17 C          21.0610   14.9443   39.2377 C.ar    1  UNL1       -0.0195
     18 C          19.1833   16.3438   38.6759 C.ar    1  UNL1       -0.0195
     19 C          12.2774   12.5699   42.1141 C.3     1  UNL1        0.2308
     20 C          20.4698   15.8892   38.4005 C.ar    1  UNL1        0.1169
     21 O          11.9310   13.9584   41.8526 O.3     1  UNL1       -0.3313
     22 C          10.9650   11.7592   42.1194 C.3     1  UNL1        0.1454
     23 O          21.1363   16.3840   37.3156 O.3     1  UNL1       -0.5068
     24 C          11.1035   14.5911   42.8622 C.3     1  UNL1        0.1140
     25 O          11.2403   10.3727   42.3252 O.3     1  UNL1       -0.3829
     26 C          10.0057   12.3090   43.2063 C.3     1  UNL1        0.1152
     27 C           9.7581   13.8214   42.9902 C.3     1  UNL1        0.1120
     28 C          10.9592   16.0933   42.5142 C.3     1  UNL1        0.0731
     29 O           8.7384   11.6576   43.1088 O.3     1  UNL1       -0.3864
     30 O           8.9456   13.9669   41.8162 O.3     1  UNL1       -0.3865
     31 O          12.0006   16.5444   41.6460 O.3     1  UNL1       -0.3924
     32 H          19.9200   15.0219   42.9046 H       1  UNL1        0.0693
     33 H          14.7589   13.0192   41.5160 H       1  UNL1        0.0691
     34 H          15.6028   14.2687   46.9240 H       1  UNL1        0.2922
     35 H          14.0138   13.1837   45.7576 H       1  UNL1        0.0691
     36 H          20.8557   13.7317   40.9980 H       1  UNL1        0.0626
     37 H          17.4862   16.2456   39.9824 H       1  UNL1        0.0626
     38 H          22.0675   14.5868   39.0319 H       1  UNL1        0.0654
     39 H          18.7221   17.0823   38.0245 H       1  UNL1        0.0654
     40 H          12.9409   12.2214   41.3068 H       1  UNL1        0.1084
     41 H          10.4970   11.8714   41.1380 H       1  UNL1        0.0683
     42 H          21.8363   15.7731   37.0204 H       1  UNL1        0.2921
     43 H          11.6280   14.5284   43.8208 H       1  UNL1        0.0647
     44 H          12.1861   10.2815   42.5203 H       1  UNL1        0.2102
     45 H          10.4368   12.1383   44.1971 H       1  UNL1        0.0648
     46 H           9.2081   14.2180   43.8479 H       1  UNL1        0.0647
     47 H          11.0146   16.6772   43.4373 H       1  UNL1        0.0584
     48 H           9.9890   16.2749   42.0458 H       1  UNL1        0.0584
     49 H           8.1987   12.0728   43.8176 H       1  UNL1        0.2100
     50 H           8.7943   14.9199   41.6779 H       1  UNL1        0.2100
     51 H          11.6508   17.2914   41.1313 H       1  UNL1        0.2095
@<TRIPOS>BOND
     1     1     2    2
     2     2     3   ar
     3     2     4   ar
     4     3     5   ar
     5     3     6   ar
     6     4     7   ar
     7     5     8   ar
     8     5     9   ar
     9     6    10    1
    10     6    11   ar
    11     7    12    1
    12     9    13   ar
    13    12    14   ar
    14    12    15   ar
    15    13    16    1
    16    14    17   ar
    17    15    18   ar
    18    16    19    1
    19    17    20   ar
    20    19    21    1
    21    19    22    1
    22    20    23    1
    23    21    24    1
    24    22    25    1
    25    22    26    1
    26    24    27    1
    27    24    28    1
    28    26    29    1
    29    27    30    1
    30    28    31    1
    31     7     8   ar
    32    11    13   ar
    33    18    20   ar
    34    26    27    1
    35     4    32    1
    36     9    33    1
    37    10    34    1
    38    11    35    1
    39    14    36    1
    40    15    37    1
    41    17    38    1
    42    18    39    1
    43    19    40    1
    44    22    41    1
    45    23    42    1
    46    24    43    1
    47    25    44    1
    48    26    45    1
    49    27    46    1
    50    28    47    1
    51    28    48    1
    52    29    49    1
    53    30    50    1
    54    31    51    1
@<TRIPOS>SUBSTRUCTURE
     1 UNL1        1 TEMP              0 ****  ****    0 ROOT


##########                                Name:                 110
##########                DOCK_Rotatable_Bonds:                  10
##########                         Heavy_Atoms:                  31
##########                    Molecular_Weight:             432.384
##########                       Formal_Charge:         9.97782e-05
##########                     HBond_Acceptors:                  10
##########                        HBond_Donors:                   6
##########                    Continuous_Score:          -43.518082
##########               Continuous_vdw_energy:          -39.912514
##########                Continuous_es_energy:           -3.605568
##########           Internal_energy_repulsive:            8.729701

@<TRIPOS>MOLECULE
110
 51 54 1 0 0
SMALL
GASTEIGER


@<TRIPOS>ATOM
      1 O          18.9229   14.6723   45.2048 O.2     1  UNL1       -0.2869
      2 C          18.4152   14.4229   44.1279 C.ar    1  UNL1        0.1966
      3 C          17.0457   13.9182   43.9560 C.ar    1  UNL1        0.1055
      4 C          19.1138   14.6116   42.8349 C.ar    1  UNL1        0.0288
      5 C          16.6662   13.6635   42.6535 C.ar    1  UNL1        0.1462
      6 C          16.0796   13.7213   45.0093 C.ar    1  UNL1        0.1347
      7 C          18.6155   14.3518   41.8572 C.ar    1  UNL1        0.1392
      8 O          17.6003   13.9067   41.6488 O.2     1  UNL1       -0.4544
      9 C          15.3656   13.0686   42.3933 C.ar    1  UNL1        0.0235
     10 O          16.4020   13.9932   46.3021 O.3     1  UNL1       -0.5058
     11 C          14.8121   13.2330   44.7329 C.ar    1  UNL1        0.0226
     12 C          19.3915   14.7874   40.6422 C.ar    1  UNL1        0.0176
     13 C          14.4593   12.8557   43.4329 C.ar    1  UNL1        0.1310
     14 C          18.7562   15.4759   39.5918 C.ar    1  UNL1       -0.0476
     15 C          20.7541   14.4647   40.5108 C.ar    1  UNL1       -0.0476
     16 O          13.2605   12.1980   43.1768 O.3     1  UNL1       -0.4606
     17 C          19.4683   15.8259   38.4423 C.ar    1  UNL1       -0.0195
     18 C          21.4547   14.8179   39.3575 C.ar    1  UNL1       -0.0195
     19 C          12.4356   12.5173   42.0130 C.3     1  UNL1        0.2308
     20 C          20.8169   15.4948   38.3219 C.ar    1  UNL1        0.1169
     21 O          12.1856   13.9473   41.9189 O.3     1  UNL1       -0.3313
     22 C          11.0655   11.8129   42.0922 C.3     1  UNL1        0.1454
     23 O          21.5236   15.8172   37.1982 O.3     1  UNL1       -0.5068
     24 C          11.5262   14.5378   43.0680 C.3     1  UNL1        0.1140
     25 O          11.2392   10.3957   42.1395 O.3     1  UNL1       -0.3829
     26 C          10.2763   12.3236   43.3253 C.3     1  UNL1        0.1152
     27 C          10.1397   13.8644   43.2762 C.3     1  UNL1        0.1120
     28 C          11.4774   16.0739   42.8758 C.3     1  UNL1        0.0731
     29 O           8.9541   11.7839   43.3122 O.3     1  UNL1       -0.3864
     30 O           9.2249   14.1876   42.2187 O.3     1  UNL1       -0.3865
     31 O          12.5066   16.5370   41.9996 O.3     1  UNL1       -0.3924
     32 H          20.1033   15.0463   42.9408 H       1  UNL1        0.0693
     33 H          15.1112   12.7615   41.3806 H       1  UNL1        0.0691
     34 H          15.5663   14.1252   46.7999 H       1  UNL1        0.2922
     35 H          14.1183   13.1166   45.5592 H       1  UNL1        0.0691
     36 H          17.7020   15.7332   39.6603 H       1  UNL1        0.0626
     37 H          21.2735   13.9264   41.2990 H       1  UNL1        0.0626
     38 H          18.9614   16.3513   37.6361 H       1  UNL1        0.0654
     39 H          22.5062   14.5573   39.2635 H       1  UNL1        0.0654
     40 H          12.9782   12.2010   41.1082 H       1  UNL1        0.1084
     41 H          10.5090   12.0574   41.1838 H       1  UNL1        0.0683
     42 H          22.4641   15.9722   37.4028 H       1  UNL1        0.2921
     43 H          12.1405   14.3402   43.9521 H       1  UNL1        0.0647
     44 H          11.5971   10.1674   43.0116 H       1  UNL1        0.2102
     45 H          10.7920   12.0228   44.2419 H       1  UNL1        0.0648
     46 H           9.7189   14.2148   44.2224 H       1  UNL1        0.0647
     47 H          11.6201   16.5567   43.8468 H       1  UNL1        0.0584
     48 H          10.5020   16.3683   42.4814 H       1  UNL1        0.0584
     49 H           8.5194   12.1919   44.0936 H       1  UNL1        0.2100
     50 H           8.8984   15.0925   42.3766 H       1  UNL1        0.2100
     51 H          13.3584   16.3940   42.4456 H       1  UNL1        0.2095
@<TRIPOS>BOND
     1     1     2    2
     2     2     3   ar
     3     2     4   ar
     4     3     5   ar
     5     3     6   ar
     6     4     7   ar
     7     5     8   ar
     8     5     9   ar
     9     6    10    1
    10     6    11   ar
    11     7    12    1
    12     9    13   ar
    13    12    14   ar
    14    12    15   ar
    15    13    16    1
    16    14    17   ar
    17    15    18   ar
    18    16    19    1
    19    17    20   ar
    20    19    21    1
    21    19    22    1
    22    20    23    1
    23    21    24    1
    24    22    25    1
    25    22    26    1
    26    24    27    1
    27    24    28    1
    28    26    29    1
    29    27    30    1
    30    28    31    1
    31     7     8   ar
    32    11    13   ar
    33    18    20   ar
    34    26    27    1
    35     4    32    1
    36     9    33    1
    37    10    34    1
    38    11    35    1
    39    14    36    1
    40    15    37    1
    41    17    38    1
    42    18    39    1
    43    19    40    1
    44    22    41    1
    45    23    42    1
    46    24    43    1
    47    25    44    1
    48    26    45    1
    49    27    46    1
    50    28    47    1
    51    28    48    1
    52    29    49    1
    53    30    50    1
    54    31    51    1
@<TRIPOS>SUBSTRUCTURE
     1 UNL1        1 TEMP              0 ****  ****    0 ROOT


##########                                Name:                 111
##########                DOCK_Rotatable_Bonds:                   6
##########                         Heavy_Atoms:                  14
##########                    Molecular_Weight:             194.187
##########                       Formal_Charge:         0.000100031
##########                     HBond_Acceptors:                   4
##########                        HBond_Donors:                   2
##########                    Continuous_Score:          -28.017088
##########               Continuous_vdw_energy:          -21.708857
##########                Continuous_es_energy:           -6.308231
##########           Internal_energy_repulsive:            5.449795

@<TRIPOS>MOLECULE
111
 24 24 1 0 0
SMALL
GASTEIGER


@<TRIPOS>ATOM
      1 O          16.5038   15.5368   45.2088 O.2     1  UNL1       -0.2458
      2 C          16.0135   14.4595   45.4734 C.2     1  UNL1        0.3296
      3 O          16.5991   13.6338   46.3048 O.3     1  UNL1       -0.4775
      4 C          14.7035   14.0465   44.9073 C.2     1  UNL1        0.0229
      5 C          14.1695   12.8207   44.7769 C.2     1  UNL1       -0.0477
      6 C          12.8468   12.4969   44.1964 C.ar    1  UNL1       -0.0211
      7 C          12.5786   11.2404   43.6432 C.ar    1  UNL1       -0.0094
      8 C          11.8589   13.4778   44.1698 C.ar    1  UNL1       -0.0509
      9 C          11.3357   10.9625   43.0602 C.ar    1  UNL1        0.1590
     10 C          10.6209   13.2105   43.5942 C.ar    1  UNL1       -0.0158
     11 O          11.1220    9.7183   42.5267 O.3     1  UNL1       -0.5033
     12 C          10.3446   11.9648   43.0328 C.ar    1  UNL1        0.1613
     13 O           9.0769   11.8325   42.4767 O.3     1  UNL1       -0.4915
     14 C           8.1685   12.9111   42.1508 C.3     1  UNL1        0.0790
     15 H          16.1077   12.8003   46.3441 H       1  UNL1        0.2954
     16 H          14.0896   14.8697   44.5414 H       1  UNL1        0.0689
     17 H          14.7281   11.9614   45.1453 H       1  UNL1        0.0626
     18 H          13.3498   10.4735   43.6604 H       1  UNL1        0.0661
     19 H          12.0531   14.4616   44.5912 H       1  UNL1        0.0625
     20 H           9.8602   13.9875   43.5750 H       1  UNL1        0.0655
     21 H          11.8303    9.0956   42.7606 H       1  UNL1        0.2923
     22 H           7.2337   12.4849   41.7782 H       1  UNL1        0.0660
     23 H           8.6127   13.5417   41.3760 H       1  UNL1        0.0660
     24 H           7.9655   13.5027   43.0477 H       1  UNL1        0.0660
@<TRIPOS>BOND
     1     1     2    2
     2     2     3    1
     3     2     4    1
     4     4     5    2
     5     5     6    1
     6     6     7   ar
     7     6     8   ar
     8     7     9   ar
     9     8    10   ar
    10     9    11    1
    11     9    12   ar
    12    12    13    1
    13    13    14    1
    14    10    12   ar
    15     3    15    1
    16     4    16    1
    17     5    17    1
    18     7    18    1
    19     8    19    1
    20    10    20    1
    21    11    21    1
    22    14    22    1
    23    14    23    1
    24    14    24    1
@<TRIPOS>SUBSTRUCTURE
     1 UNL1        1 TEMP              0 ****  ****    0 ROOT


##########                                Name:                 111
##########                DOCK_Rotatable_Bonds:                   6
##########                         Heavy_Atoms:                  14
##########                    Molecular_Weight:             194.187
##########                       Formal_Charge:         0.000100031
##########                     HBond_Acceptors:                   4
##########                        HBond_Donors:                   2
##########                    Continuous_Score:          -28.237268
##########               Continuous_vdw_energy:          -23.202154
##########                Continuous_es_energy:           -5.035114
##########           Internal_energy_repulsive:            3.324963

@<TRIPOS>MOLECULE
111
 24 24 1 0 0
SMALL
GASTEIGER


@<TRIPOS>ATOM
      1 O          16.4867   13.7781   46.3054 O.2     1  UNL1       -0.2458
      2 C          16.3184   13.8711   45.1078 C.2     1  UNL1        0.3296
      3 O          17.2835   14.2686   44.3163 O.3     1  UNL1       -0.4775
      4 C          15.0280   13.4916   44.4770 C.2     1  UNL1        0.0229
      5 C          13.8371   13.2313   45.0415 C.2     1  UNL1       -0.0477
      6 C          12.5927   12.8575   44.3322 C.ar    1  UNL1       -0.0211
      7 C          12.4189   11.5831   43.7822 C.ar    1  UNL1       -0.0094
      8 C          11.5870   13.8082   44.1793 C.ar    1  UNL1       -0.0509
      9 C          11.2529   11.2574   43.0776 C.ar    1  UNL1        0.1590
     10 C          10.4249   13.4935   43.4824 C.ar    1  UNL1       -0.0158
     11 O          11.1310    9.9973   42.5529 O.3     1  UNL1       -0.5033
     12 C          10.2436   12.2294   42.9232 C.ar    1  UNL1        0.1613
     13 O           9.0460   12.0492   42.2395 O.3     1  UNL1       -0.4915
     14 C           7.9612   13.0028   42.1475 C.3     1  UNL1        0.0790
     15 H          17.0994   13.9933   43.4064 H       1  UNL1        0.2954
     16 H          15.0626   13.4114   43.3905 H       1  UNL1        0.0689
     17 H          13.7370   13.3174   46.1224 H       1  UNL1        0.0626
     18 H          13.2045   10.8397   43.8979 H       1  UNL1        0.0661
     19 H          11.7086   14.8054   44.5966 H       1  UNL1        0.0625
     20 H           9.6495   14.2473   43.3654 H       1  UNL1        0.0655
     21 H          11.9912    9.5538   42.4676 H       1  UNL1        0.2923
     22 H           7.1396   12.5497   41.5871 H       1  UNL1        0.0660
     23 H           8.3054   13.8986   41.6237 H       1  UNL1        0.0660
     24 H           7.6156   13.2627   43.1516 H       1  UNL1        0.0660
@<TRIPOS>BOND
     1     1     2    2
     2     2     3    1
     3     2     4    1
     4     4     5    2
     5     5     6    1
     6     6     7   ar
     7     6     8   ar
     8     7     9   ar
     9     8    10   ar
    10     9    11    1
    11     9    12   ar
    12    12    13    1
    13    13    14    1
    14    10    12   ar
    15     3    15    1
    16     4    16    1
    17     5    17    1
    18     7    18    1
    19     8    19    1
    20    10    20    1
    21    11    21    1
    22    14    22    1
    23    14    23    1
    24    14    24    1
@<TRIPOS>SUBSTRUCTURE
     1 UNL1        1 TEMP              0 ****  ****    0 ROOT


##########                                Name:                 111
##########                DOCK_Rotatable_Bonds:                   6
##########                         Heavy_Atoms:                  14
##########                    Molecular_Weight:             194.187
##########                       Formal_Charge:         0.000100031
##########                     HBond_Acceptors:                   4
##########                        HBond_Donors:                   2
##########                    Continuous_Score:          -27.322819
##########               Continuous_vdw_energy:          -26.040003
##########                Continuous_es_energy:           -1.282816
##########           Internal_energy_repulsive:            6.088108

@<TRIPOS>MOLECULE
111
 24 24 1 0 0
SMALL
GASTEIGER


@<TRIPOS>ATOM
      1 O          23.7730   14.7270   43.8822 O.2     1  UNL1       -0.2458
      2 C          22.9232   13.9067   44.1583 C.2     1  UNL1        0.3296
      3 O          22.0709   14.1143   45.1310 O.3     1  UNL1       -0.4775
      4 C          22.7768   12.6523   43.3759 C.2     1  UNL1        0.0229
      5 C          23.0089   12.4175   42.0736 C.2     1  UNL1       -0.0477
      6 C          22.8354   11.1266   41.3702 C.ar    1  UNL1       -0.0211
      7 C          22.4633    9.9648   42.0547 C.ar    1  UNL1       -0.0094
      8 C          23.0826   11.0611   40.0015 C.ar    1  UNL1       -0.0509
      9 C          22.3438    8.7418   41.3824 C.ar    1  UNL1        0.1590
     10 C          22.9650    9.8511   39.3250 C.ar    1  UNL1       -0.0158
     11 O          21.9813    7.6302   42.0972 O.3     1  UNL1       -0.5033
     12 C          22.6024    8.6852   39.9978 C.ar    1  UNL1        0.1613
     13 O          22.5360    7.5416   39.2094 O.3     1  UNL1       -0.4915
     14 C          22.8172    7.4616   37.7919 C.3     1  UNL1        0.0790
     15 H          21.6666   13.2768   45.4010 H       1  UNL1        0.2954
     16 H          22.4240   11.7979   43.9535 H       1  UNL1        0.0689
     17 H          23.3843   13.2285   41.4513 H       1  UNL1        0.0626
     18 H          22.2725   10.0131   43.1244 H       1  UNL1        0.0661
     19 H          23.3778   11.9543   39.4553 H       1  UNL1        0.0625
     20 H          23.1666    9.8129   38.2569 H       1  UNL1        0.0655
     21 H          21.6629    6.9152   41.5216 H       1  UNL1        0.2923
     22 H          22.6266    6.4407   37.4513 H       1  UNL1        0.0660
     23 H          23.8660    7.7129   37.6126 H       1  UNL1        0.0660
     24 H          22.1660    8.1525   37.2497 H       1  UNL1        0.0660
@<TRIPOS>BOND
     1     1     2    2
     2     2     3    1
     3     2     4    1
     4     4     5    2
     5     5     6    1
     6     6     7   ar
     7     6     8   ar
     8     7     9   ar
     9     8    10   ar
    10     9    11    1
    11     9    12   ar
    12    12    13    1
    13    13    14    1
    14    10    12   ar
    15     3    15    1
    16     4    16    1
    17     5    17    1
    18     7    18    1
    19     8    19    1
    20    10    20    1
    21    11    21    1
    22    14    22    1
    23    14    23    1
    24    14    24    1
@<TRIPOS>SUBSTRUCTURE
     1 UNL1        1 TEMP              0 ****  ****    0 ROOT


##########                                Name:                 112
##########                DOCK_Rotatable_Bonds:                   8
##########                         Heavy_Atoms:                  19
##########                    Molecular_Weight:             272.255
##########                       Formal_Charge:         5.96046e-08
##########                     HBond_Acceptors:                   7
##########                        HBond_Donors:                   5
##########                    Continuous_Score:          -33.843796
##########               Continuous_vdw_energy:          -30.419361
##########                Continuous_es_energy:           -3.424433
##########           Internal_energy_repulsive:            3.630662

@<TRIPOS>MOLECULE
112
 35 36 1 0 0
SMALL
GASTEIGER


@<TRIPOS>ATOM
      1 O          13.3525   12.2716   42.4589 O.3     1  UNL1       -0.3313
      2 C          14.5731   12.6452   43.1480 C.3     1  UNL1        0.2308
      3 C          12.2191   13.1635   42.6441 C.3     1  UNL1        0.1140
      4 O          15.0882   13.9217   42.6898 O.3     1  UNL1       -0.4608
      5 C          14.3042   12.7254   44.6695 C.3     1  UNL1        0.1454
      6 C          11.8463   13.2349   44.1483 C.3     1  UNL1        0.1120
      7 C          11.0485   12.6279   41.7880 C.3     1  UNL1        0.0731
      8 C          16.0733   14.0729   41.7317 C.ar    1  UNL1        0.1242
      9 O          15.4754   13.2321   45.3249 O.3     1  UNL1       -0.3829
     10 C          13.0693   13.6002   45.0172 C.3     1  UNL1        0.1152
     11 O          10.8515   14.2429   44.3555 O.3     1  UNL1       -0.3865
     12 O          11.5278   11.7488   40.7631 O.3     1  UNL1       -0.3924
     13 C          16.2989   13.1338   40.7197 C.ar    1  UNL1       -0.0164
     14 C          16.8818   15.2059   41.8143 C.ar    1  UNL1       -0.0164
     15 O          13.3523   14.9984   44.8754 O.3     1  UNL1       -0.3864
     16 C          17.3326   13.3305   39.8049 C.ar    1  UNL1       -0.0167
     17 C          17.9143   15.4011   40.9005 C.ar    1  UNL1       -0.0167
     18 C          18.1423   14.4622   39.8970 C.ar    1  UNL1        0.1171
     19 O          19.1599   14.6552   39.0118 O.3     1  UNL1       -0.5068
     20 H          15.3347   11.8774   42.9422 H       1  UNL1        0.1084
     21 H          12.4985   14.1601   42.2879 H       1  UNL1        0.0647
     22 H          14.1132   11.7121   45.0337 H       1  UNL1        0.0683
     23 H          11.4535   12.2665   44.4708 H       1  UNL1        0.0647
     24 H          10.5284   13.4699   41.3242 H       1  UNL1        0.0584
     25 H          10.3397   12.0918   42.4250 H       1  UNL1        0.0584
     26 H          16.1126   12.4922   45.4138 H       1  UNL1        0.2102
     27 H          12.8112   13.4173   46.0639 H       1  UNL1        0.0648
     28 H          11.3091   15.1008   44.2179 H       1  UNL1        0.2100
     29 H          12.0657   11.0527   41.1824 H       1  UNL1        0.2095
     30 H          15.6819   12.2437   40.6324 H       1  UNL1        0.0655
     31 H          16.7109   15.9381   42.5995 H       1  UNL1        0.0655
     32 H          14.0797   15.1946   45.4825 H       1  UNL1        0.2100
     33 H          17.5057   12.5942   39.0243 H       1  UNL1        0.0655
     34 H          18.5441   16.2846   40.9751 H       1  UNL1        0.0655
     35 H          19.1875   13.9250   38.3686 H       1  UNL1        0.2921
@<TRIPOS>BOND
     1     1     2    1
     2     1     3    1
     3     2     4    1
     4     2     5    1
     5     3     6    1
     6     3     7    1
     7     4     8    1
     8     5     9    1
     9     5    10    1
    10     6    11    1
    11     7    12    1
    12     8    13   ar
    13     8    14   ar
    14    10    15    1
    15    13    16   ar
    16    14    17   ar
    17    16    18   ar
    18    18    19    1
    19     6    10    1
    20    17    18   ar
    21     2    20    1
    22     3    21    1
    23     5    22    1
    24     6    23    1
    25     7    24    1
    26     7    25    1
    27     9    26    1
    28    10    27    1
    29    11    28    1
    30    12    29    1
    31    13    30    1
    32    14    31    1
    33    15    32    1
    34    16    33    1
    35    17    34    1
    36    19    35    1
@<TRIPOS>SUBSTRUCTURE
     1 UNL1        1 TEMP              0 ****  ****    0 ROOT


##########                                Name:                 112
##########                DOCK_Rotatable_Bonds:                   8
##########                         Heavy_Atoms:                  19
##########                    Molecular_Weight:             272.255
##########                       Formal_Charge:         5.96046e-08
##########                     HBond_Acceptors:                   7
##########                        HBond_Donors:                   5
##########                    Continuous_Score:          -34.024860
##########               Continuous_vdw_energy:          -30.264711
##########                Continuous_es_energy:           -3.760150
##########           Internal_energy_repulsive:            4.270582

@<TRIPOS>MOLECULE
112
 35 36 1 0 0
SMALL
GASTEIGER


@<TRIPOS>ATOM
      1 O          13.7160   12.0824   42.6121 O.3     1  UNL1       -0.3313
      2 C          14.7295   12.7077   43.4408 C.3     1  UNL1        0.2308
      3 C          12.4659   12.8124   42.4767 C.3     1  UNL1        0.1140
      4 O          15.1579   13.9861   42.9053 O.3     1  UNL1       -0.4608
      5 C          14.1718   12.9189   44.8684 C.3     1  UNL1        0.1454
      6 C          11.8114   12.9976   43.8709 C.3     1  UNL1        0.1120
      7 C          11.5529   12.0163   41.5160 C.3     1  UNL1        0.0731
      8 C          16.1640   14.1488   41.9710 C.ar    1  UNL1        0.1242
      9 O          15.1267   13.6639   45.6373 O.3     1  UNL1       -0.3829
     10 C          12.7942   13.6355   44.8767 C.3     1  UNL1        0.1152
     11 O          10.6775   13.8646   43.7646 O.3     1  UNL1       -0.3865
     12 O          11.1394   10.7811   42.1130 O.3     1  UNL1       -0.3924
     13 C          16.3561   13.2685   40.9010 C.ar    1  UNL1       -0.0164
     14 C          17.0284   15.2299   42.1389 C.ar    1  UNL1       -0.0164
     15 O          12.9222   15.0352   44.5936 O.3     1  UNL1       -0.3864
     16 C          17.4122   13.4711   40.0136 C.ar    1  UNL1       -0.0167
     17 C          18.0833   15.4310   41.2524 C.ar    1  UNL1       -0.0167
     18 C          18.2777   14.5501   40.1908 C.ar    1  UNL1        0.1171
     19 O          19.3172   14.7480   39.3325 O.3     1  UNL1       -0.5068
     20 H          15.6058   12.0424   43.4756 H       1  UNL1        0.1084
     21 H          12.6806   13.7925   42.0392 H       1  UNL1        0.0647
     22 H          14.0438   11.9365   45.3310 H       1  UNL1        0.0683
     23 H          11.4891   12.0247   44.2524 H       1  UNL1        0.0647
     24 H          12.1005   11.8037   40.5942 H       1  UNL1        0.0584
     25 H          10.6713   12.6123   41.2651 H       1  UNL1        0.0584
     26 H          14.7622   13.7751   46.5408 H       1  UNL1        0.2102
     27 H          12.3692   13.5362   45.8791 H       1  UNL1        0.0648
     28 H          10.0926   13.6316   44.5183 H       1  UNL1        0.2100
     29 H          11.9158   10.3682   42.5331 H       1  UNL1        0.2095
     30 H          15.6955   12.4197   40.7469 H       1  UNL1        0.0655
     31 H          16.8834   15.9162   42.9695 H       1  UNL1        0.0655
     32 H          13.7023   15.3429   45.0759 H       1  UNL1        0.2100
     33 H          17.5592   12.7803   39.1873 H       1  UNL1        0.0655
     34 H          18.7565   16.2733   41.3935 H       1  UNL1        0.0655
     35 H          19.3675   14.0160   38.6928 H       1  UNL1        0.2921
@<TRIPOS>BOND
     1     1     2    1
     2     1     3    1
     3     2     4    1
     4     2     5    1
     5     3     6    1
     6     3     7    1
     7     4     8    1
     8     5     9    1
     9     5    10    1
    10     6    11    1
    11     7    12    1
    12     8    13   ar
    13     8    14   ar
    14    10    15    1
    15    13    16   ar
    16    14    17   ar
    17    16    18   ar
    18    18    19    1
    19     6    10    1
    20    17    18   ar
    21     2    20    1
    22     3    21    1
    23     5    22    1
    24     6    23    1
    25     7    24    1
    26     7    25    1
    27     9    26    1
    28    10    27    1
    29    11    28    1
    30    12    29    1
    31    13    30    1
    32    14    31    1
    33    15    32    1
    34    16    33    1
    35    17    34    1
    36    19    35    1
@<TRIPOS>SUBSTRUCTURE
     1 UNL1        1 TEMP              0 ****  ****    0 ROOT


##########                                Name:                 112
##########                DOCK_Rotatable_Bonds:                   8
##########                         Heavy_Atoms:                  19
##########                    Molecular_Weight:             272.255
##########                       Formal_Charge:         5.96046e-08
##########                     HBond_Acceptors:                   7
##########                        HBond_Donors:                   5
##########                    Continuous_Score:          -33.831169
##########               Continuous_vdw_energy:          -30.329931
##########                Continuous_es_energy:           -3.501240
##########           Internal_energy_repulsive:            3.420306

@<TRIPOS>MOLECULE
112
 35 36 1 0 0
SMALL
GASTEIGER


@<TRIPOS>ATOM
      1 O          13.1967   12.1565   42.4680 O.3     1  UNL1       -0.3313
      2 C          14.3332   12.6634   43.2138 C.3     1  UNL1        0.2308
      3 C          11.9991   12.9807   42.4956 C.3     1  UNL1        0.1140
      4 O          14.8029   13.9336   42.6936 O.3     1  UNL1       -0.4608
      5 C          13.9394   12.8402   44.6995 C.3     1  UNL1        0.1454
      6 C          11.5041   13.1403   43.9571 C.3     1  UNL1        0.1120
      7 C          10.9359   12.3033   41.6008 C.3     1  UNL1        0.0731
      8 C          15.8555   14.0792   41.8091 C.ar    1  UNL1        0.1242
      9 O          15.0211   13.4736   45.3973 O.3     1  UNL1       -0.3829
     10 C          12.6289   13.6528   44.8824 C.3     1  UNL1        0.1152
     11 O          10.4353   14.0910   44.0075 O.3     1  UNL1       -0.3865
     12 O          11.5577   11.5016   40.5890 O.3     1  UNL1       -0.3924
     13 C          16.1457   13.1406   40.8133 C.ar    1  UNL1       -0.0164
     14 C          16.6648   15.2055   41.9528 C.ar    1  UNL1       -0.0164
     15 O          12.8352   15.0523   44.6497 O.3     1  UNL1       -0.3864
     16 C          17.2439   13.3311   39.9756 C.ar    1  UNL1       -0.0167
     17 C          17.7618   15.3945   41.1161 C.ar    1  UNL1       -0.0167
     18 C          18.0539   14.4560   40.1288 C.ar    1  UNL1        0.1171
     19 O          19.1339   14.6429   39.3196 O.3     1  UNL1       -0.5068
     20 H          15.1548   11.9358   43.1281 H       1  UNL1        0.1084
     21 H          12.2438   13.9642   42.0818 H       1  UNL1        0.0647
     22 H          13.7833   11.8467   45.1291 H       1  UNL1        0.0683
     23 H          11.1476   12.1747   44.3266 H       1  UNL1        0.0647
     24 H          10.3252   13.0739   41.1230 H       1  UNL1        0.0584
     25 H          10.2834   11.6750   42.2130 H       1  UNL1        0.0584
     26 H          15.7936   12.8707   45.3627 H       1  UNL1        0.2102
     27 H          12.3002   13.5325   45.9184 H       1  UNL1        0.0648
     28 H          10.8628   14.9744   43.9693 H       1  UNL1        0.2100
     29 H          12.2518   12.0338   40.1592 H       1  UNL1        0.2095
     30 H          15.5297   12.2557   40.6793 H       1  UNL1        0.0655
     31 H          16.4436   15.9371   42.7259 H       1  UNL1        0.0655
     32 H          13.4061   15.3685   45.3638 H       1  UNL1        0.2100
     33 H          17.4670   12.5953   39.2072 H       1  UNL1        0.0655
     34 H          18.3914   16.2726   41.2382 H       1  UNL1        0.0655
     35 H          19.2400   13.8824   38.7214 H       1  UNL1        0.2921
@<TRIPOS>BOND
     1     1     2    1
     2     1     3    1
     3     2     4    1
     4     2     5    1
     5     3     6    1
     6     3     7    1
     7     4     8    1
     8     5     9    1
     9     5    10    1
    10     6    11    1
    11     7    12    1
    12     8    13   ar
    13     8    14   ar
    14    10    15    1
    15    13    16   ar
    16    14    17   ar
    17    16    18   ar
    18    18    19    1
    19     6    10    1
    20    17    18   ar
    21     2    20    1
    22     3    21    1
    23     5    22    1
    24     6    23    1
    25     7    24    1
    26     7    25    1
    27     9    26    1
    28    10    27    1
    29    11    28    1
    30    12    29    1
    31    13    30    1
    32    14    31    1
    33    15    32    1
    34    16    33    1
    35    17    34    1
    36    19    35    1
@<TRIPOS>SUBSTRUCTURE
     1 UNL1        1 TEMP              0 ****  ****    0 ROOT


##########                                Name:                 113
##########                DOCK_Rotatable_Bonds:                  11
##########                         Heavy_Atoms:                  32
##########                    Molecular_Weight:             448.383
##########                       Formal_Charge:        -3.57628e-07
##########                     HBond_Acceptors:                  11
##########                        HBond_Donors:                   7
##########                    Continuous_Score:          -42.856438
##########               Continuous_vdw_energy:          -39.264114
##########                Continuous_es_energy:           -3.592323
##########           Internal_energy_repulsive:            8.330402

@<TRIPOS>MOLECULE
113
 52 55 1 0 0
SMALL
GASTEIGER


@<TRIPOS>ATOM
      1 O          18.6907   14.7948   45.1989 O.2     1  UNL1       -0.2869
      2 C          18.0527   14.6680   44.1711 C.ar    1  UNL1        0.1966
      3 C          16.6641   14.1762   44.1077 C.ar    1  UNL1        0.1055
      4 C          18.6076   14.9675   42.8310 C.ar    1  UNL1        0.0288
      5 C          16.1307   14.0832   42.8390 C.ar    1  UNL1        0.1462
      6 C          15.8372   13.7825   45.2279 C.ar    1  UNL1        0.1347
      7 C          17.9845   14.8398   41.9010 C.ar    1  UNL1        0.1393
      8 O          16.9324   14.4634   41.7642 O.2     1  UNL1       -0.4544
      9 C          14.8223   13.4924   42.6512 C.ar    1  UNL1        0.0235
     10 O          16.3097   13.8382   46.5024 O.3     1  UNL1       -0.5058
     11 C          14.5602   13.2736   45.0335 C.ar    1  UNL1        0.0226
     12 C          18.5969   15.4396   40.6668 C.ar    1  UNL1        0.0211
     13 C          14.0530   13.0881   43.7463 C.ar    1  UNL1        0.1310
     14 C          19.6367   14.7787   39.9850 C.ar    1  UNL1       -0.0059
     15 C          18.0888   16.6408   40.1376 C.ar    1  UNL1       -0.0474
     16 O          12.8352   12.4487   43.5291 O.3     1  UNL1       -0.4606
     17 C          20.1501   15.3150   38.8023 C.ar    1  UNL1        0.1589
     18 C          18.6141   17.1688   38.9591 C.ar    1  UNL1       -0.0159
     19 C          12.1607   12.4484   42.2309 C.3     1  UNL1        0.2308
     20 O          21.1429   14.6814   38.1089 O.3     1  UNL1       -0.5033
     21 C          19.6414   16.5061   38.2937 C.ar    1  UNL1        0.1583
     22 O          11.7810   13.7948   41.8302 O.3     1  UNL1       -0.3313
     23 C          10.8696   11.5996   42.2786 C.3     1  UNL1        0.1454
     24 O          20.1584   16.9963   37.1330 O.3     1  UNL1       -0.5033
     25 C          10.9154   14.4947   42.7618 C.3     1  UNL1        0.1140
     26 O          11.1699   10.2398   42.6206 O.3     1  UNL1       -0.3829
     27 C           9.8539   12.2254   43.2691 C.3     1  UNL1        0.1152
     28 C           9.5839   13.7125   42.9252 C.3     1  UNL1        0.1120
     29 C          10.7490   15.9632   42.2961 C.3     1  UNL1        0.0731
     30 O           8.6038   11.5473   43.1684 O.3     1  UNL1       -0.3864
     31 O           8.7889   13.7725   41.7323 O.3     1  UNL1       -0.3865
     32 O          10.8052   16.1018   40.8694 O.3     1  UNL1       -0.3924
     33 H          19.6416   15.3037   42.8364 H       1  UNL1        0.0693
     34 H          14.4586   13.3352   41.6390 H       1  UNL1        0.0691
     35 H          17.2534   14.0797   46.4557 H       1  UNL1        0.2922
     36 H          13.9852   12.9870   45.9093 H       1  UNL1        0.0691
     37 H          20.0322   13.8410   40.3677 H       1  UNL1        0.0662
     38 H          17.2766   17.1636   40.6369 H       1  UNL1        0.0626
     39 H          18.2141   18.0954   38.5537 H       1  UNL1        0.0655
     40 H          12.8551   12.0454   41.4766 H       1  UNL1        0.1084
     41 H          21.2637   13.7790   38.4417 H       1  UNL1        0.2923
     42 H          10.4287   11.6032   41.2775 H       1  UNL1        0.0683
     43 H          20.7759   16.3114   36.7916 H       1  UNL1        0.2923
     44 H          11.4128   14.5177   43.7357 H       1  UNL1        0.0647
     45 H          11.4500   10.1891   43.5510 H       1  UNL1        0.2102
     46 H          10.2409   12.1441   44.2886 H       1  UNL1        0.0648
     47 H           9.0111   14.1594   43.7428 H       1  UNL1        0.0647
     48 H          11.5505   16.5635   42.7358 H       1  UNL1        0.0584
     49 H           9.7933   16.3516   42.6581 H       1  UNL1        0.0584
     50 H           8.6556   10.8617   43.8697 H       1  UNL1        0.2100
     51 H           9.2556   13.2698   41.0400 H       1  UNL1        0.2100
     52 H           9.9530   16.4377   40.5372 H       1  UNL1        0.2095
@<TRIPOS>BOND
     1     1     2    2
     2     2     3   ar
     3     2     4   ar
     4     3     5   ar
     5     3     6   ar
     6     4     7   ar
     7     5     8   ar
     8     5     9   ar
     9     6    10    1
    10     6    11   ar
    11     7    12    1
    12     9    13   ar
    13    12    14   ar
    14    12    15   ar
    15    13    16    1
    16    14    17   ar
    17    15    18   ar
    18    16    19    1
    19    17    20    1
    20    17    21   ar
    21    19    22    1
    22    19    23    1
    23    21    24    1
    24    22    25    1
    25    23    26    1
    26    23    27    1
    27    25    28    1
    28    25    29    1
    29    27    30    1
    30    28    31    1
    31    29    32    1
    32     7     8   ar
    33    11    13   ar
    34    18    21   ar
    35    27    28    1
    36     4    33    1
    37     9    34    1
    38    10    35    1
    39    11    36    1
    40    14    37    1
    41    15    38    1
    42    18    39    1
    43    19    40    1
    44    20    41    1
    45    23    42    1
    46    24    43    1
    47    25    44    1
    48    26    45    1
    49    27    46    1
    50    28    47    1
    51    29    48    1
    52    29    49    1
    53    30    50    1
    54    31    51    1
    55    32    52    1
@<TRIPOS>SUBSTRUCTURE
     1 UNL1        1 TEMP              0 ****  ****    0 ROOT


##########                                Name:                 113
##########                DOCK_Rotatable_Bonds:                  11
##########                         Heavy_Atoms:                  32
##########                    Molecular_Weight:             448.383
##########                       Formal_Charge:        -3.57628e-07
##########                     HBond_Acceptors:                  11
##########                        HBond_Donors:                   7
##########                    Continuous_Score:          -41.456169
##########               Continuous_vdw_energy:          -36.745930
##########                Continuous_es_energy:           -4.710240
##########           Internal_energy_repulsive:            7.893641

@<TRIPOS>MOLECULE
113
 52 55 1 0 0
SMALL
GASTEIGER


@<TRIPOS>ATOM
      1 O          10.6534    9.9781   42.9439 O.2     1  UNL1       -0.2869
      2 C          10.5649   11.1552   43.2375 C.ar    1  UNL1        0.1966
      3 C           9.2971   11.8466   43.5351 C.ar    1  UNL1        0.1055
      4 C          11.7329   12.0632   43.3051 C.ar    1  UNL1        0.0288
      5 C           9.4138   13.1909   43.8211 C.ar    1  UNL1        0.1462
      6 C           7.9754   11.2578   43.5424 C.ar    1  UNL1        0.1347
      7 C          11.6116   13.1482   43.5833 C.ar    1  UNL1        0.1393
      8 O          10.6894   13.7522   43.8118 O.2     1  UNL1       -0.4544
      9 C           8.2220   13.9932   44.0017 C.ar    1  UNL1        0.0235
     10 O           7.7924    9.9407   43.2552 O.3     1  UNL1       -0.5058
     11 C           6.8465   12.0313   43.7774 C.ar    1  UNL1        0.0226
     12 C          12.9061   13.8551   43.8705 C.ar    1  UNL1        0.0211
     13 C           6.9521   13.4093   43.9724 C.ar    1  UNL1        0.1310
     14 C          13.8035   13.3514   44.8316 C.ar    1  UNL1       -0.0059
     15 C          13.2683   14.9957   43.1296 C.ar    1  UNL1       -0.0474
     16 O           5.8235   14.2194   44.0671 O.3     1  UNL1       -0.4606
     17 C          15.0322   13.9814   45.0400 C.ar    1  UNL1        0.1589
     18 C          14.4957   15.6188   43.3515 C.ar    1  UNL1       -0.0159
     19 C           4.4620   13.6993   43.9409 C.3     1  UNL1        0.2308
     20 O          15.9309   13.4990   45.9497 O.3     1  UNL1       -0.5033
     21 C          15.3747   15.1114   44.3038 C.ar    1  UNL1        0.1583
     22 O           4.1638   13.3209   42.5678 O.3     1  UNL1       -0.3313
     23 C           3.4222   14.7629   44.3626 C.3     1  UNL1        0.1454
     24 O          16.5850   15.6954   44.5253 O.3     1  UNL1       -0.5033
     25 C           4.3080   14.3837   41.5897 C.3     1  UNL1        0.1140
     26 O           3.6216   15.1522   45.7282 O.3     1  UNL1       -0.3829
     27 C           3.4863   15.9823   43.4072 C.3     1  UNL1        0.1152
     28 C           3.3303   15.5414   41.9294 C.3     1  UNL1        0.1120
     29 C           4.1396   13.7922   40.1674 C.3     1  UNL1        0.0731
     30 O           2.4058   16.8697   43.6869 O.3     1  UNL1       -0.3864
     31 O           1.9654   15.1603   41.7038 O.3     1  UNL1       -0.3865
     32 O           4.9411   12.6212   39.9559 O.3     1  UNL1       -0.3924
     33 H          12.6830   11.5940   43.0609 H       1  UNL1        0.0693
     34 H           8.3277   15.0676   44.1273 H       1  UNL1        0.0691
     35 H           6.8325    9.7690   43.2631 H       1  UNL1        0.2922
     36 H           5.8781   11.5394   43.7647 H       1  UNL1        0.0691
     37 H          13.5504   12.4617   45.4030 H       1  UNL1        0.0662
     38 H          12.5997   15.3966   42.3716 H       1  UNL1        0.0626
     39 H          14.7708   16.4976   42.7727 H       1  UNL1        0.0655
     40 H           4.3702   12.8031   44.5749 H       1  UNL1        0.1084
     41 H          15.5048   12.8558   46.5364 H       1  UNL1        0.2923
     42 H           2.4294   14.3103   44.2853 H       1  UNL1        0.0683
     43 H          16.6039   16.5134   43.9799 H       1  UNL1        0.2923
     44 H           5.3275   14.7738   41.6601 H       1  UNL1        0.0647
     45 H           2.9742   15.8361   45.9727 H       1  UNL1        0.2102
     46 H           4.4392   16.5015   43.5414 H       1  UNL1        0.0648
     47 H           3.5594   16.3958   41.2860 H       1  UNL1        0.0647
     48 H           4.4316   14.5504   39.4354 H       1  UNL1        0.0584
     49 H           3.0881   13.5435   40.0011 H       1  UNL1        0.0584
     50 H           1.6112   16.2976   43.6101 H       1  UNL1        0.2100
     51 H           1.4116   15.9512   41.8368 H       1  UNL1        0.2100
     52 H           4.8331   12.3094   39.0391 H       1  UNL1        0.2095
@<TRIPOS>BOND
     1     1     2    2
     2     2     3   ar
     3     2     4   ar
     4     3     5   ar
     5     3     6   ar
     6     4     7   ar
     7     5     8   ar
     8     5     9   ar
     9     6    10    1
    10     6    11   ar
    11     7    12    1
    12     9    13   ar
    13    12    14   ar
    14    12    15   ar
    15    13    16    1
    16    14    17   ar
    17    15    18   ar
    18    16    19    1
    19    17    20    1
    20    17    21   ar
    21    19    22    1
    22    19    23    1
    23    21    24    1
    24    22    25    1
    25    23    26    1
    26    23    27    1
    27    25    28    1
    28    25    29    1
    29    27    30    1
    30    28    31    1
    31    29    32    1
    32     7     8   ar
    33    11    13   ar
    34    18    21   ar
    35    27    28    1
    36     4    33    1
    37     9    34    1
    38    10    35    1
    39    11    36    1
    40    14    37    1
    41    15    38    1
    42    18    39    1
    43    19    40    1
    44    20    41    1
    45    23    42    1
    46    24    43    1
    47    25    44    1
    48    26    45    1
    49    27    46    1
    50    28    47    1
    51    29    48    1
    52    29    49    1
    53    30    50    1
    54    31    51    1
    55    32    52    1
@<TRIPOS>SUBSTRUCTURE
     1 UNL1        1 TEMP              0 ****  ****    0 ROOT


##########                                Name:                 113
##########                DOCK_Rotatable_Bonds:                  11
##########                         Heavy_Atoms:                  32
##########                    Molecular_Weight:             448.383
##########                       Formal_Charge:        -3.57628e-07
##########                     HBond_Acceptors:                  11
##########                        HBond_Donors:                   7
##########                    Continuous_Score:          -40.655991
##########               Continuous_vdw_energy:          -37.430183
##########                Continuous_es_energy:           -3.225808
##########           Internal_energy_repulsive:            6.702080

@<TRIPOS>MOLECULE
113
 52 55 1 0 0
SMALL
GASTEIGER


@<TRIPOS>ATOM
      1 O           7.6242    9.4193   43.3847 O.2     1  UNL1       -0.2869
      2 C           7.4969   10.6261   43.4674 C.ar    1  UNL1        0.1966
      3 C           8.6055   11.5910   43.3477 C.ar    1  UNL1        0.1055
      4 C           6.1985   11.2875   43.7322 C.ar    1  UNL1        0.0288
      5 C           8.2506   12.9156   43.4977 C.ar    1  UNL1        0.1462
      6 C           9.9971   11.2791   43.1045 C.ar    1  UNL1        0.1347
      7 C           6.1194   12.4092   43.7997 C.ar    1  UNL1        0.1393
      8 O           6.9084   13.2095   43.7325 O.2     1  UNL1       -0.4544
      9 C           9.2775   13.9357   43.5266 C.ar    1  UNL1        0.0235
     10 O          10.4130    9.9917   42.9612 O.3     1  UNL1       -0.5058
     11 C          10.9619   12.2772   43.0753 C.ar    1  UNL1        0.0226
     12 C           4.7080   12.9247   43.7987 C.ar    1  UNL1        0.0211
     13 C          10.6210   13.6081   43.3219 C.ar    1  UNL1        0.1310
     14 C           3.9790   13.0295   44.9990 C.ar    1  UNL1       -0.0059
     15 C           4.1204   13.3747   42.6015 C.ar    1  UNL1       -0.0474
     16 O          11.5930   14.5988   43.4375 O.3     1  UNL1       -0.4606
     17 C           2.6926   13.5727   44.9914 C.ar    1  UNL1        0.1589
     18 C           2.8330   13.9096   42.6068 C.ar    1  UNL1       -0.0159
     19 C          12.7015   14.7352   42.4926 C.3     1  UNL1        0.2308
     20 O           1.9733   13.7074   46.1457 O.3     1  UNL1       -0.5033
     21 C           2.1226   14.0089   43.7994 C.ar    1  UNL1        0.1583
     22 O          13.7558   13.7712   42.7690 O.3     1  UNL1       -0.3313
     23 C          13.3308   16.1446   42.5782 C.3     1  UNL1        0.1454
     24 O           0.8698   14.5424   43.8293 O.3     1  UNL1       -0.5033
     25 C          14.3208   13.8408   44.1043 C.3     1  UNL1        0.1140
     26 O          12.3592   17.1526   42.2678 O.3     1  UNL1       -0.3829
     27 C          13.9556   16.3677   43.9796 C.3     1  UNL1        0.1152
     28 C          14.9588   15.2387   44.3286 C.3     1  UNL1        0.1120
     29 C          15.2889   12.6483   44.3097 C.3     1  UNL1        0.0731
     30 O          14.6921   17.5885   43.9889 O.3     1  UNL1       -0.3864
     31 O          16.1410   15.4109   43.5339 O.3     1  UNL1       -0.3865
     32 O          14.6892   11.3858   43.9865 O.3     1  UNL1       -0.3924
     33 H           5.3620   10.6038   43.8572 H       1  UNL1        0.0693
     34 H           8.9913   14.9614   43.7450 H       1  UNL1        0.0691
     35 H          11.3663    9.9666   43.1651 H       1  UNL1        0.2922
     36 H          11.9929   11.9865   42.8955 H       1  UNL1        0.0691
     37 H           4.4207   12.7032   45.9373 H       1  UNL1        0.0662
     38 H           4.6671   13.3181   41.6633 H       1  UNL1        0.0626
     39 H           2.3865   14.2591   41.6786 H       1  UNL1        0.0655
     40 H          12.3193   14.5486   41.4764 H       1  UNL1        0.1084
     41 H           1.0366   13.5181   45.9835 H       1  UNL1        0.2923
     42 H          14.1250   16.2034   41.8283 H       1  UNL1        0.0683
     43 H           0.5417   14.5358   42.9024 H       1  UNL1        0.2923
     44 H          13.5058   13.7245   44.8243 H       1  UNL1        0.0647
     45 H          12.7767   17.8634   41.7510 H       1  UNL1        0.2102
     46 H          13.1623   16.4052   44.7312 H       1  UNL1        0.0648
     47 H          15.2362   15.3342   45.3823 H       1  UNL1        0.0647
     48 H          15.6016   12.6269   45.3574 H       1  UNL1        0.0584
     49 H          16.1782   12.7934   43.6905 H       1  UNL1        0.0584
     50 H          14.2350   18.1288   44.6698 H       1  UNL1        0.2100
     51 H          16.8752   14.9658   43.9952 H       1  UNL1        0.2100
     52 H          15.3178   10.8434   43.4766 H       1  UNL1        0.2095
@<TRIPOS>BOND
     1     1     2    2
     2     2     3   ar
     3     2     4   ar
     4     3     5   ar
     5     3     6   ar
     6     4     7   ar
     7     5     8   ar
     8     5     9   ar
     9     6    10    1
    10     6    11   ar
    11     7    12    1
    12     9    13   ar
    13    12    14   ar
    14    12    15   ar
    15    13    16    1
    16    14    17   ar
    17    15    18   ar
    18    16    19    1
    19    17    20    1
    20    17    21   ar
    21    19    22    1
    22    19    23    1
    23    21    24    1
    24    22    25    1
    25    23    26    1
    26    23    27    1
    27    25    28    1
    28    25    29    1
    29    27    30    1
    30    28    31    1
    31    29    32    1
    32     7     8   ar
    33    11    13   ar
    34    18    21   ar
    35    27    28    1
    36     4    33    1
    37     9    34    1
    38    10    35    1
    39    11    36    1
    40    14    37    1
    41    15    38    1
    42    18    39    1
    43    19    40    1
    44    20    41    1
    45    23    42    1
    46    24    43    1
    47    25    44    1
    48    26    45    1
    49    27    46    1
    50    28    47    1
    51    29    48    1
    52    29    49    1
    53    30    50    1
    54    31    51    1
    55    32    52    1
@<TRIPOS>SUBSTRUCTURE
     1 UNL1        1 TEMP              0 ****  ****    0 ROOT


##########                                Name:                 114
##########                DOCK_Rotatable_Bonds:                   6
##########                         Heavy_Atoms:                  21
##########                    Molecular_Weight:             289.374
##########                       Formal_Charge:         0.000300266
##########                     HBond_Acceptors:                   4
##########                        HBond_Donors:                   1
##########                    Continuous_Score:          -36.708405
##########               Continuous_vdw_energy:          -35.527695
##########                Continuous_es_energy:           -1.180710
##########           Internal_energy_repulsive:            9.777177

@<TRIPOS>MOLECULE
114
 44 46 1 0 0
SMALL
GASTEIGER


@<TRIPOS>ATOM
      1 O           8.1216   10.4884   43.3991 O.2     1  UNL1       -0.2501
      2 C           7.7652   11.6043   43.0656 C.2     1  UNL1        0.3171
      3 O           8.6155   12.6144   42.7565 O.3     1  UNL1       -0.4608
      4 C           6.3015   11.9854   42.8839 C.3     1  UNL1        0.1044
      5 C           9.9923   12.5238   43.2157 C.3     1  UNL1        0.1059
      6 C           5.6975   12.5783   44.1561 C.ar    1  UNL1       -0.0315
      7 C           6.1115   12.9753   41.7086 C.3     1  UNL1        0.0612
      8 C          10.2659   13.5631   44.3391 C.3     1  UNL1        0.0000
      9 C          10.9803   12.7084   42.0344 C.3     1  UNL1        0.0000
     10 C           6.0845   13.8370   44.6301 C.ar    1  UNL1       -0.0577
     11 C           4.6916   11.8792   44.8301 C.ar    1  UNL1       -0.0577
     12 O           5.7022   12.2939   40.5183 O.3     1  UNL1       -0.3939
     13 C          11.7934   13.7348   44.6129 C.3     1  UNL1        0.0138
     14 C          12.4398   12.9604   42.5366 C.3     1  UNL1        0.0138
     15 C           5.4824   14.3788   45.7656 C.ar    1  UNL1       -0.0615
     16 C           4.0863   12.4239   45.9610 C.ar    1  UNL1       -0.0615
     17 N          12.5273   12.6116   43.9783 N.3     1  UNL1       -0.2992
     18 C          12.3548   14.9847   43.8938 C.3     1  UNL1       -0.0358
     19 C          12.7829   14.4680   42.5081 C.3     1  UNL1       -0.0358
     20 C           4.4822   13.6737   46.4302 C.ar    1  UNL1       -0.0617
     21 C          13.9031   12.4086   44.4898 C.3     1  UNL1       -0.0122
     22 H           5.7563   11.0696   42.6399 H       1  UNL1        0.0485
     23 H          10.1635   11.5208   43.6191 H       1  UNL1        0.0735
     24 H           7.0473   13.5096   41.5209 H       1  UNL1        0.0568
     25 H           5.3451   13.7075   41.9755 H       1  UNL1        0.0568
     26 H           9.7796   13.2239   45.2560 H       1  UNL1        0.0316
     27 H           9.8069   14.5202   44.0793 H       1  UNL1        0.0316
     28 H          10.6420   13.5181   41.3836 H       1  UNL1        0.0316
     29 H          10.9649   11.7972   41.4319 H       1  UNL1        0.0316
     30 H           6.8520   14.4101   44.1167 H       1  UNL1        0.0621
     31 H           4.3648   10.9071   44.4676 H       1  UNL1        0.0621
     32 H           5.6850   12.9424   39.7888 H       1  UNL1        0.2094
     33 H          11.9720   13.7878   45.6909 H       1  UNL1        0.0464
     34 H          13.1453   12.3842   41.9307 H       1  UNL1        0.0464
     35 H           5.7893   15.3569   46.1280 H       1  UNL1        0.0618
     36 H           3.2998   11.8753   46.4739 H       1  UNL1        0.0618
     37 H          13.2281   15.3615   44.4302 H       1  UNL1        0.0281
     38 H          11.6278   15.7970   43.8223 H       1  UNL1        0.0281
     39 H          12.2802   15.0028   41.6982 H       1  UNL1        0.0281
     40 H          13.8602   14.6032   42.3826 H       1  UNL1        0.0281
     41 H           4.0073   14.1007   47.3105 H       1  UNL1        0.0618
     42 H          13.8637   12.1766   45.5581 H       1  UNL1        0.0391
     43 H          14.5191   13.2993   44.3441 H       1  UNL1        0.0391
     44 H          14.3662   11.5667   43.9684 H       1  UNL1        0.0391
@<TRIPOS>BOND
     1     1     2    2
     2     2     3    1
     3     2     4    1
     4     3     5    1
     5     4     6    1
     6     4     7    1
     7     5     8    1
     8     5     9    1
     9     6    10   ar
    10     6    11   ar
    11     7    12    1
    12     8    13    1
    13     9    14    1
    14    10    15   ar
    15    11    16   ar
    16    13    17    1
    17    13    18    1
    18    14    19    1
    19    15    20   ar
    20    17    21    1
    21    14    17    1
    22    16    20   ar
    23    18    19    1
    24     4    22    1
    25     5    23    1
    26     7    24    1
    27     7    25    1
    28     8    26    1
    29     8    27    1
    30     9    28    1
    31     9    29    1
    32    10    30    1
    33    11    31    1
    34    12    32    1
    35    13    33    1
    36    14    34    1
    37    15    35    1
    38    16    36    1
    39    18    37    1
    40    18    38    1
    41    19    39    1
    42    19    40    1
    43    20    41    1
    44    21    42    1
    45    21    43    1
    46    21    44    1
@<TRIPOS>SUBSTRUCTURE
     1 UNL1        1 TEMP              0 ****  ****    0 ROOT


##########                                Name:                 114
##########                DOCK_Rotatable_Bonds:                   6
##########                         Heavy_Atoms:                  21
##########                    Molecular_Weight:             289.374
##########                       Formal_Charge:         0.000300266
##########                     HBond_Acceptors:                   4
##########                        HBond_Donors:                   1
##########                    Continuous_Score:          -36.701668
##########               Continuous_vdw_energy:          -34.980957
##########                Continuous_es_energy:           -1.720711
##########           Internal_energy_repulsive:            9.816876

@<TRIPOS>MOLECULE
114
 44 46 1 0 0
SMALL
GASTEIGER


@<TRIPOS>ATOM
      1 O           8.4188   14.0775   42.2995 O.2     1  UNL1       -0.2501
      2 C           8.4306   12.9401   42.7354 C.2     1  UNL1        0.3171
      3 O           9.5527   12.2853   43.1237 O.3     1  UNL1       -0.4608
      4 C           7.1615   12.1299   42.9671 C.3     1  UNL1        0.1044
      5 C          10.8313   12.9647   42.9884 C.3     1  UNL1        0.1059
      6 C           6.4145   12.5747   44.2237 C.ar    1  UNL1       -0.0315
      7 C           6.2110   12.1971   41.7468 C.3     1  UNL1        0.0612
      8 C          11.9662   11.9448   42.6904 C.3     1  UNL1        0.0000
      9 C          11.1501   13.7965   44.2579 C.3     1  UNL1        0.0000
     10 C           6.8870   13.6234   45.0211 C.ar    1  UNL1       -0.0577
     11 C           5.2003   11.9651   44.5536 C.ar    1  UNL1       -0.0577
     12 O           6.9255   12.0016   40.5220 O.3     1  UNL1       -0.3939
     13 C          13.3810   12.5775   42.8793 C.3     1  UNL1        0.0138
     14 C          12.6464   14.2506   44.2898 C.3     1  UNL1        0.0138
     15 C           6.1613   14.0444   46.1352 C.ar    1  UNL1       -0.0615
     16 C           4.4726   12.3906   45.6635 C.ar    1  UNL1       -0.0615
     17 N          13.2453   14.0540   42.9441 N.3     1  UNL1       -0.2992
     18 C          13.9802   12.2093   44.2577 C.3     1  UNL1       -0.0358
     19 C          13.4873   13.3240   45.1984 C.3     1  UNL1       -0.0358
     20 C           4.9535   13.4300   46.4557 C.ar    1  UNL1       -0.0617
     21 C          14.5039   14.7986   42.7053 C.3     1  UNL1       -0.0122
     22 H           7.4626   11.0869   43.0981 H       1  UNL1        0.0485
     23 H          10.7685   13.6702   42.1539 H       1  UNL1        0.0735
     24 H           5.7063   13.1674   41.7249 H       1  UNL1        0.0568
     25 H           5.4515   11.4165   41.8389 H       1  UNL1        0.0568
     26 H          11.8680   11.6033   41.6578 H       1  UNL1        0.0316
     27 H          11.8470   11.0615   43.3226 H       1  UNL1        0.0316
     28 H          10.8913   13.2289   45.1548 H       1  UNL1        0.0316
     29 H          10.5107   14.6822   44.2543 H       1  UNL1        0.0316
     30 H           7.8194   14.1264   44.7790 H       1  UNL1        0.0621
     31 H           4.8077   11.1600   43.9366 H       1  UNL1        0.0621
     32 H           6.3015   12.1334   39.7831 H       1  UNL1        0.2094
     33 H          14.0399   12.2590   42.0663 H       1  UNL1        0.0464
     34 H          12.7113   15.2914   44.6206 H       1  UNL1        0.0464
     35 H           6.5355   14.8592   46.7503 H       1  UNL1        0.0618
     36 H           3.5257   11.9148   45.9074 H       1  UNL1        0.0618
     37 H          15.0707   12.2288   44.2063 H       1  UNL1        0.0281
     38 H          13.6775   11.2177   44.6023 H       1  UNL1        0.0281
     39 H          12.9180   12.9259   46.0423 H       1  UNL1        0.0281
     40 H          14.3440   13.8717   45.5991 H       1  UNL1        0.0281
     41 H           4.3839   13.7646   47.3196 H       1  UNL1        0.0618
     42 H          14.8743   14.5747   41.7009 H       1  UNL1        0.0391
     43 H          15.2723   14.5286   43.4338 H       1  UNL1        0.0391
     44 H          14.3114   15.8726   42.7732 H       1  UNL1        0.0391
@<TRIPOS>BOND
     1     1     2    2
     2     2     3    1
     3     2     4    1
     4     3     5    1
     5     4     6    1
     6     4     7    1
     7     5     8    1
     8     5     9    1
     9     6    10   ar
    10     6    11   ar
    11     7    12    1
    12     8    13    1
    13     9    14    1
    14    10    15   ar
    15    11    16   ar
    16    13    17    1
    17    13    18    1
    18    14    19    1
    19    15    20   ar
    20    17    21    1
    21    14    17    1
    22    16    20   ar
    23    18    19    1
    24     4    22    1
    25     5    23    1
    26     7    24    1
    27     7    25    1
    28     8    26    1
    29     8    27    1
    30     9    28    1
    31     9    29    1
    32    10    30    1
    33    11    31    1
    34    12    32    1
    35    13    33    1
    36    14    34    1
    37    15    35    1
    38    16    36    1
    39    18    37    1
    40    18    38    1
    41    19    39    1
    42    19    40    1
    43    20    41    1
    44    21    42    1
    45    21    43    1
    46    21    44    1
@<TRIPOS>SUBSTRUCTURE
     1 UNL1        1 TEMP              0 ****  ****    0 ROOT


##########                                Name:                 114
##########                DOCK_Rotatable_Bonds:                   6
##########                         Heavy_Atoms:                  21
##########                    Molecular_Weight:             289.374
##########                       Formal_Charge:         0.000300266
##########                     HBond_Acceptors:                   4
##########                        HBond_Donors:                   1
##########                    Continuous_Score:          -36.119457
##########               Continuous_vdw_energy:          -33.934315
##########                Continuous_es_energy:           -2.185143
##########           Internal_energy_repulsive:           11.082023

@<TRIPOS>MOLECULE
114
 44 46 1 0 0
SMALL
GASTEIGER


@<TRIPOS>ATOM
      1 O           8.4293   14.2138   42.0870 O.2     1  UNL1       -0.2501
      2 C           8.4178   13.0852   42.5453 C.2     1  UNL1        0.3171
      3 O           9.5271   12.4127   42.9403 O.3     1  UNL1       -0.4608
      4 C           7.1321   12.3088   42.8000 C.3     1  UNL1        0.1044
      5 C          10.8130   13.0857   42.8477 C.3     1  UNL1        0.1059
      6 C           6.3678   12.8400   44.0119 C.ar    1  UNL1       -0.0315
      7 C           6.2065   12.3151   41.5589 C.3     1  UNL1        0.0612
      8 C          11.9419   12.0692   42.5170 C.3     1  UNL1        0.0000
      9 C          11.1257   13.8584   44.1554 C.3     1  UNL1        0.0000
     10 C           4.9794   12.7008   44.1179 C.ar    1  UNL1       -0.0577
     11 C           7.0742   13.4231   45.0685 C.ar    1  UNL1       -0.0577
     12 O           6.9054   11.8772   40.3891 O.3     1  UNL1       -0.3939
     13 C          13.3602   12.6800   42.7476 C.3     1  UNL1        0.0138
     14 C          12.6254   14.2969   44.2221 C.3     1  UNL1        0.0138
     15 C           4.3105   13.1489   45.2568 C.ar    1  UNL1       -0.0615
     16 C           6.4057   13.8650   46.2087 C.ar    1  UNL1       -0.0615
     17 N          13.2366   14.1535   42.8754 N.3     1  UNL1       -0.2992
     18 C          13.9416   12.2467   44.1147 C.3     1  UNL1       -0.0358
     19 C          13.4486   13.3240   45.0979 C.3     1  UNL1       -0.0358
     20 C           5.0230   13.7293   46.3030 C.ar    1  UNL1       -0.0617
     21 C          14.5042   14.8961   42.6820 C.3     1  UNL1       -0.0122
     22 H           7.4144   11.2717   43.0002 H       1  UNL1        0.0485
     23 H          10.7650   13.8272   42.0442 H       1  UNL1        0.0735
     24 H           5.8151   13.3234   41.3952 H       1  UNL1        0.0568
     25 H           5.3627   11.6434   41.7361 H       1  UNL1        0.0568
     26 H          11.8516   11.7738   41.4697 H       1  UNL1        0.0316
     27 H          11.8084   11.1603   43.1090 H       1  UNL1        0.0316
     28 H          10.8525   13.2549   45.0241 H       1  UNL1        0.0316
     29 H          10.4941   14.7494   44.1840 H       1  UNL1        0.0316
     30 H           4.4068   12.2365   43.3194 H       1  UNL1        0.0621
     31 H           8.1556   13.5248   45.0125 H       1  UNL1        0.0621
     32 H           6.3060   11.9726   39.6247 H       1  UNL1        0.2094
     33 H          14.0247   12.3911   41.9282 H       1  UNL1        0.0464
     34 H          12.6960   15.3218   44.5986 H       1  UNL1        0.0464
     35 H           3.2314   13.0380   45.3310 H       1  UNL1        0.0618
     36 H           6.9649   14.3106   47.0280 H       1  UNL1        0.0618
     37 H          15.0327   12.2584   44.0752 H       1  UNL1        0.0281
     38 H          13.6266   11.2440   44.4126 H       1  UNL1        0.0281
     39 H          12.8670   12.8948   45.9180 H       1  UNL1        0.0281
     40 H          14.3058   13.8459   45.5308 H       1  UNL1        0.0281
     41 H           4.5018   14.0706   47.1943 H       1  UNL1        0.0618
     42 H          14.8831   14.7126   41.6725 H       1  UNL1        0.0391
     43 H          15.2625   14.5876   43.4057 H       1  UNL1        0.0391
     44 H          14.3205   15.9679   42.7945 H       1  UNL1        0.0391
@<TRIPOS>BOND
     1     1     2    2
     2     2     3    1
     3     2     4    1
     4     3     5    1
     5     4     6    1
     6     4     7    1
     7     5     8    1
     8     5     9    1
     9     6    10   ar
    10     6    11   ar
    11     7    12    1
    12     8    13    1
    13     9    14    1
    14    10    15   ar
    15    11    16   ar
    16    13    17    1
    17    13    18    1
    18    14    19    1
    19    15    20   ar
    20    17    21    1
    21    14    17    1
    22    16    20   ar
    23    18    19    1
    24     4    22    1
    25     5    23    1
    26     7    24    1
    27     7    25    1
    28     8    26    1
    29     8    27    1
    30     9    28    1
    31     9    29    1
    32    10    30    1
    33    11    31    1
    34    12    32    1
    35    13    33    1
    36    14    34    1
    37    15    35    1
    38    16    36    1
    39    18    37    1
    40    18    38    1
    41    19    39    1
    42    19    40    1
    43    20    41    1
    44    21    42    1
    45    21    43    1
    46    21    44    1
@<TRIPOS>SUBSTRUCTURE
     1 UNL1        1 TEMP              0 ****  ****    0 ROOT


##########                                Name:                 115
##########                DOCK_Rotatable_Bonds:                   3
##########                         Heavy_Atoms:                  20
##########                    Molecular_Weight:             275.351
##########                       Formal_Charge:        -0.000299871
##########                     HBond_Acceptors:                   5
##########                        HBond_Donors:                   1
##########                    Continuous_Score:          -29.159733
##########               Continuous_vdw_energy:          -28.102249
##########                Continuous_es_energy:           -1.057485
##########           Internal_energy_repulsive:            9.038578

@<TRIPOS>MOLECULE
115
 41 43 1 0 0
SMALL
GASTEIGER


@<TRIPOS>ATOM
      1 O          11.0840   13.0703   43.4521 O.2     1  UNL1       -0.2260
      2 C          11.0316   11.8695   43.2785 C.2     1  UNL1        0.4053
      3 O           9.9088   11.1517   43.0504 O.3     1  UNL1       -0.4115
      4 N          12.1266   11.0862   43.3537 N.am    1  UNL1       -0.2839
      5 C           8.6160   11.6384   43.0583 C.ar    1  UNL1        0.1336
      6 C          13.4947   11.5621   43.5920 C.3     1  UNL1        0.0032
      7 C           8.3292   12.9552   42.6962 C.ar    1  UNL1       -0.0136
      8 C           7.5875   10.7503   43.3741 C.ar    1  UNL1       -0.0174
      9 C           6.9563   13.3786   42.6347 C.ar    1  UNL1       -0.0139
     10 C           6.2017   11.1482   43.3997 C.ar    1  UNL1       -0.0369
     11 C           5.8763   12.4668   42.9228 C.ar    1  UNL1        0.0347
     12 C           6.5623   14.8171   42.4309 C.3     1  UNL1        0.0279
     13 N           4.8071   13.3245   42.8648 N.pl3   1  UNL1       -0.3162
     14 C           5.0536   14.6418   42.2704 C.3     1  UNL1        0.0860
     15 C           7.0521   15.3666   41.0802 C.3     1  UNL1       -0.0277
     16 C           6.9563   15.6682   43.6568 C.3     1  UNL1       -0.0525
     17 C           3.7940   13.2529   43.9220 C.3     1  UNL1        0.0022
     18 N           4.7933   14.6960   40.8000 N.3     1  UNL1       -0.2867
     19 C           6.0846   14.7256   40.0821 C.3     1  UNL1        0.0012
     20 C           3.8361   13.7123   40.2427 C.3     1  UNL1       -0.0111
     21 H          12.0062   10.0920   43.2224 H       1  UNL1        0.1517
     22 H          13.5141   12.1919   44.4859 H       1  UNL1        0.0427
     23 H          13.8315   12.1427   42.7288 H       1  UNL1        0.0427
     24 H          14.1565   10.7055   43.7366 H       1  UNL1        0.0427
     25 H           9.1262   13.6357   42.4099 H       1  UNL1        0.0658
     26 H           7.8156    9.7170   43.6216 H       1  UNL1        0.0655
     27 H           5.4264   10.4625   43.7242 H       1  UNL1        0.0637
     28 H           4.4798   15.4352   42.7739 H       1  UNL1        0.0680
     29 H           8.0941   15.1220   40.8647 H       1  UNL1        0.0287
     30 H           6.9342   16.4532   41.0530 H       1  UNL1        0.0287
     31 H           6.5636   15.2248   44.5755 H       1  UNL1        0.0239
     32 H           6.5519   16.6792   43.5677 H       1  UNL1        0.0239
     33 H           8.0423   15.7388   43.7460 H       1  UNL1        0.0239
     34 H           4.2748   13.0382   44.8812 H       1  UNL1        0.0428
     35 H           3.0789   12.4581   43.6969 H       1  UNL1        0.0428
     36 H           3.2540   14.1997   44.0098 H       1  UNL1        0.0428
     37 H           6.4176   13.7060   39.8659 H       1  UNL1        0.0427
     38 H           6.0166   15.2991   39.1538 H       1  UNL1        0.0427
     39 H           2.8880   13.7622   40.7832 H       1  UNL1        0.0391
     40 H           4.2437   12.6998   40.3284 H       1  UNL1        0.0391
     41 H           3.6560   13.9270   39.1860 H       1  UNL1        0.0391
@<TRIPOS>BOND
     1     1     2    2
     2     2     3    1
     3     2     4   am
     4     3     5    1
     5     4     6    1
     6     5     7   ar
     7     5     8   ar
     8     7     9   ar
     9     8    10   ar
    10     9    11   ar
    11     9    12    1
    12    11    13    1
    13    12    14    1
    14    12    15    1
    15    12    16    1
    16    13    17    1
    17    14    18    1
    18    15    19    1
    19    18    20    1
    20    10    11   ar
    21    13    14    1
    22    18    19    1
    23     4    21    1
    24     6    22    1
    25     6    23    1
    26     6    24    1
    27     7    25    1
    28     8    26    1
    29    10    27    1
    30    14    28    1
    31    15    29    1
    32    15    30    1
    33    16    31    1
    34    16    32    1
    35    16    33    1
    36    17    34    1
    37    17    35    1
    38    17    36    1
    39    19    37    1
    40    19    38    1
    41    20    39    1
    42    20    40    1
    43    20    41    1
@<TRIPOS>SUBSTRUCTURE
     1 UNL1        1 TEMP              0 ****  ****    0 ROOT


##########                                Name:                 115
##########                DOCK_Rotatable_Bonds:                   3
##########                         Heavy_Atoms:                  20
##########                    Molecular_Weight:             275.351
##########                       Formal_Charge:        -0.000299871
##########                     HBond_Acceptors:                   5
##########                        HBond_Donors:                   1
##########                    Continuous_Score:          -27.924797
##########               Continuous_vdw_energy:          -25.982588
##########                Continuous_es_energy:           -1.942209
##########           Internal_energy_repulsive:            5.907878

@<TRIPOS>MOLECULE
115
 41 43 1 0 0
SMALL
GASTEIGER


@<TRIPOS>ATOM
      1 O          11.8819   12.4096   41.7179 O.2     1  UNL1       -0.2260
      2 C          11.4716   11.8065   42.6888 C.2     1  UNL1        0.4053
      3 O          10.3193   11.1024   42.7537 O.3     1  UNL1       -0.4115
      4 N          12.1218   11.8229   43.8700 N.am    1  UNL1       -0.2839
      5 C           9.0482   11.6306   42.8702 C.ar    1  UNL1        0.1336
      6 C          13.3987   12.5008   44.1256 C.3     1  UNL1        0.0032
      7 C           8.7710   12.9515   42.5157 C.ar    1  UNL1       -0.0136
      8 C           8.0252   10.7800   43.2902 C.ar    1  UNL1       -0.0174
      9 C           7.4119   13.4183   42.5713 C.ar    1  UNL1       -0.0139
     10 C           6.6604   11.2227   43.4340 C.ar    1  UNL1       -0.0369
     11 C           6.3345   12.5453   42.9685 C.ar    1  UNL1        0.0347
     12 C           7.0462   14.8661   42.3823 C.3     1  UNL1        0.0279
     13 N           5.2915   13.4364   42.9939 N.pl3   1  UNL1       -0.3162
     14 C           5.5243   14.7379   42.3603 C.3     1  UNL1        0.0860
     15 C           7.4291   15.3834   40.9851 C.3     1  UNL1       -0.0277
     16 C           7.5752   15.7188   43.5551 C.3     1  UNL1       -0.0525
     17 C           4.3761   13.4102   44.1386 C.3     1  UNL1        0.0022
     18 N           5.1345   14.7827   40.9185 N.3     1  UNL1       -0.2867
     19 C           6.3562   14.7619   40.0874 C.3     1  UNL1        0.0012
     20 C           4.1009   13.8238   40.4640 C.3     1  UNL1       -0.0111
     21 H          11.7110   11.3187   44.6427 H       1  UNL1        0.1517
     22 H          13.3313   13.5443   43.8054 H       1  UNL1        0.0427
     23 H          14.1933   11.9982   43.5673 H       1  UNL1        0.0427
     24 H          13.6223   12.4621   45.1938 H       1  UNL1        0.0427
     25 H           9.5597   13.6024   42.1491 H       1  UNL1        0.0658
     26 H           8.2425    9.7429   43.5315 H       1  UNL1        0.0655
     27 H           5.8965   10.5663   43.8368 H       1  UNL1        0.0637
     28 H           5.0233   15.5554   42.9013 H       1  UNL1        0.0680
     29 H           8.4393   15.1027   40.6807 H       1  UNL1        0.0287
     30 H           7.3430   16.4728   40.9524 H       1  UNL1        0.0287
     31 H           7.2532   15.2995   44.5119 H       1  UNL1        0.0239
     32 H           7.1961   16.7412   43.4876 H       1  UNL1        0.0239
     33 H           8.6665   15.7553   43.5456 H       1  UNL1        0.0239
     34 H           4.9344   13.1917   45.0540 H       1  UNL1        0.0428
     35 H           3.6192   12.6362   43.9904 H       1  UNL1        0.0428
     36 H           3.8759   14.3749   44.2604 H       1  UNL1        0.0428
     37 H           6.6364   13.7296   39.8575 H       1  UNL1        0.0427
     38 H           6.2227   15.3261   39.1604 H       1  UNL1        0.0427
     39 H           3.2073   13.9107   41.0865 H       1  UNL1        0.0391
     40 H           4.4828   12.7997   40.5278 H       1  UNL1        0.0391
     41 H           3.8331   14.0315   39.4247 H       1  UNL1        0.0391
@<TRIPOS>BOND
     1     1     2    2
     2     2     3    1
     3     2     4   am
     4     3     5    1
     5     4     6    1
     6     5     7   ar
     7     5     8   ar
     8     7     9   ar
     9     8    10   ar
    10     9    11   ar
    11     9    12    1
    12    11    13    1
    13    12    14    1
    14    12    15    1
    15    12    16    1
    16    13    17    1
    17    14    18    1
    18    15    19    1
    19    18    20    1
    20    10    11   ar
    21    13    14    1
    22    18    19    1
    23     4    21    1
    24     6    22    1
    25     6    23    1
    26     6    24    1
    27     7    25    1
    28     8    26    1
    29    10    27    1
    30    14    28    1
    31    15    29    1
    32    15    30    1
    33    16    31    1
    34    16    32    1
    35    16    33    1
    36    17    34    1
    37    17    35    1
    38    17    36    1
    39    19    37    1
    40    19    38    1
    41    20    39    1
    42    20    40    1
    43    20    41    1
@<TRIPOS>SUBSTRUCTURE
     1 UNL1        1 TEMP              0 ****  ****    0 ROOT


##########                                Name:                 115
##########                DOCK_Rotatable_Bonds:                   3
##########                         Heavy_Atoms:                  20
##########                    Molecular_Weight:             275.351
##########                       Formal_Charge:        -0.000299871
##########                     HBond_Acceptors:                   5
##########                        HBond_Donors:                   1
##########                    Continuous_Score:          -25.970543
##########               Continuous_vdw_energy:          -24.622847
##########                Continuous_es_energy:           -1.347696
##########           Internal_energy_repulsive:            5.873983

@<TRIPOS>MOLECULE
115
 41 43 1 0 0
SMALL
GASTEIGER


@<TRIPOS>ATOM
      1 O           5.5312    9.3052   43.7993 O.2     1  UNL1       -0.2260
      2 C           6.5768    9.7074   43.3308 C.2     1  UNL1        0.4053
      3 O           6.7142   10.7533   42.4853 O.3     1  UNL1       -0.4115
      4 N           7.7529    9.0927   43.5706 N.am    1  UNL1       -0.2839
      5 C           5.9686   11.9162   42.5014 C.ar    1  UNL1        0.1336
      6 C           7.9378    7.9270   44.4437 C.3     1  UNL1        0.0032
      7 C           5.4287   12.4211   43.6849 C.ar    1  UNL1       -0.0136
      8 C           5.8272   12.6160   41.3028 C.ar    1  UNL1       -0.0174
      9 C           4.7402   13.6834   43.6549 C.ar    1  UNL1       -0.0139
     10 C           5.0818   13.8468   41.2084 C.ar    1  UNL1       -0.0369
     11 C           4.6135   14.4400   42.4336 C.ar    1  UNL1        0.0347
     12 C           3.9752   14.2150   44.8373 C.3     1  UNL1        0.0279
     13 N           3.8009   15.4604   42.8586 N.pl3   1  UNL1       -0.3162
     14 C           3.6336   15.6063   44.3078 C.3     1  UNL1        0.0860
     15 C           4.8839   14.4570   46.0547 C.3     1  UNL1       -0.0277
     16 C           2.7340   13.3421   45.1198 C.3     1  UNL1       -0.0525
     17 C           2.6641   15.8469   42.0175 C.3     1  UNL1        0.0022
     18 N           4.6224   16.5335   44.9367 N.3     1  UNL1       -0.2867
     19 C           5.6275   15.7396   45.6735 C.3     1  UNL1        0.0012
     20 C           5.2202   17.5775   44.0721 C.3     1  UNL1       -0.0111
     21 H           8.5804    9.4669   43.1288 H       1  UNL1        0.1517
     22 H           7.2393    7.1368   44.1543 H       1  UNL1        0.0427
     23 H           7.7501    8.2185   45.4809 H       1  UNL1        0.0427
     24 H           8.9618    7.5605   44.3470 H       1  UNL1        0.0427
     25 H           5.5739   11.8980   44.6259 H       1  UNL1        0.0658
     26 H           6.2799   12.2345   40.3915 H       1  UNL1        0.0655
     27 H           4.9184   14.3324   40.2523 H       1  UNL1        0.0637
     28 H           2.6134   15.9219   44.5754 H       1  UNL1        0.0680
     29 H           5.5638   13.6278   46.2600 H       1  UNL1        0.0287
     30 H           4.2763   14.6408   46.9449 H       1  UNL1        0.0287
     31 H           2.1313   13.2256   44.2154 H       1  UNL1        0.0239
     32 H           2.1082   13.8022   45.8880 H       1  UNL1        0.0239
     33 H           3.0297   12.3496   45.4662 H       1  UNL1        0.0239
     34 H           2.2304   14.9576   41.5502 H       1  UNL1        0.0428
     35 H           2.9981   16.5327   41.2352 H       1  UNL1        0.0428
     36 H           1.8887   16.3388   42.6112 H       1  UNL1        0.0428
     37 H           6.4629   15.4859   45.0140 H       1  UNL1        0.0427
     38 H           5.9972   16.2736   46.5531 H       1  UNL1        0.0427
     39 H           4.4336   18.1585   43.5852 H       1  UNL1        0.0391
     40 H           5.8506   17.1159   43.3051 H       1  UNL1        0.0391
     41 H           5.8387   18.2484   44.6739 H       1  UNL1        0.0391
@<TRIPOS>BOND
     1     1     2    2
     2     2     3    1
     3     2     4   am
     4     3     5    1
     5     4     6    1
     6     5     7   ar
     7     5     8   ar
     8     7     9   ar
     9     8    10   ar
    10     9    11   ar
    11     9    12    1
    12    11    13    1
    13    12    14    1
    14    12    15    1
    15    12    16    1
    16    13    17    1
    17    14    18    1
    18    15    19    1
    19    18    20    1
    20    10    11   ar
    21    13    14    1
    22    18    19    1
    23     4    21    1
    24     6    22    1
    25     6    23    1
    26     6    24    1
    27     7    25    1
    28     8    26    1
    29    10    27    1
    30    14    28    1
    31    15    29    1
    32    15    30    1
    33    16    31    1
    34    16    32    1
    35    16    33    1
    36    17    34    1
    37    17    35    1
    38    17    36    1
    39    19    37    1
    40    19    38    1
    41    20    39    1
    42    20    40    1
    43    20    41    1
@<TRIPOS>SUBSTRUCTURE
     1 UNL1        1 TEMP              0 ****  ****    0 ROOT


##########                                Name:                 116
##########                DOCK_Rotatable_Bonds:                   1
##########                         Heavy_Atoms:                  16
##########                    Molecular_Weight:             216.193
##########                       Formal_Charge:        -0.000100009
##########                     HBond_Acceptors:                   4
##########                        HBond_Donors:                   0
##########                    Continuous_Score:          -28.872196
##########               Continuous_vdw_energy:          -29.427036
##########                Continuous_es_energy:            0.554840
##########           Internal_energy_repulsive:            4.247808

@<TRIPOS>MOLECULE
116
 24 26 1 0 0
SMALL
GASTEIGER


@<TRIPOS>ATOM
      1 O          21.0306    7.7914   42.9587 O.2     1  UNL1       -0.2452
      2 C          21.6299    8.2675   42.0171 C.ar    1  UNL1        0.3372
      3 O          21.6027    7.6879   40.7950 O.2     1  UNL1       -0.4219
      4 C          22.4178    9.5023   42.0888 C.ar    1  UNL1        0.0237
      5 C          22.2777    8.1347   39.6727 C.ar    1  UNL1        0.1461
      6 C          23.0721   10.0513   40.9367 C.ar    1  UNL1       -0.0408
      7 C          22.9916    9.3958   39.7095 C.ar    1  UNL1        0.0600
      8 C          22.2371    7.2642   38.5251 C.ar    1  UNL1        0.0245
      9 C          23.5372    9.8566   38.4955 C.ar    1  UNL1        0.1414
     10 C          22.5480    7.8853   37.2641 C.ar    1  UNL1        0.1418
     11 O          24.2702   11.0089   38.2194 O.3     1  UNL1       -0.4937
     12 C          23.3057    9.0893   37.2950 C.ar    1  UNL1        0.0625
     13 O          22.8721    7.1827   36.1329 O.2     1  UNL1       -0.4627
     14 C          24.7342   12.0134   39.1461 C.3     1  UNL1        0.0788
     15 C          24.0856    9.1296   36.1010 C.ar    1  UNL1       -0.0126
     16 C          23.7524    7.9772   35.4266 C.ar    1  UNL1        0.0933
     17 H          22.4438    9.9837   43.0608 H       1  UNL1        0.0689
     18 H          23.5717   10.9939   41.1043 H       1  UNL1        0.0628
     19 H          21.6702    6.3424   38.4221 H       1  UNL1        0.0692
     20 H          25.2877   12.7721   38.5863 H       1  UNL1        0.0660
     21 H          25.4024   11.5574   39.8820 H       1  UNL1        0.0660
     22 H          23.8776   12.4857   39.6340 H       1  UNL1        0.0660
     23 H          24.8309    9.8703   35.8321 H       1  UNL1        0.0656
     24 H          24.1009    7.5521   34.4929 H       1  UNL1        0.1030
@<TRIPOS>BOND
     1     1     2    2
     2     2     3   ar
     3     2     4   ar
     4     3     5   ar
     5     4     6   ar
     6     5     7   ar
     7     5     8   ar
     8     7     9   ar
     9     8    10   ar
    10     9    11    1
    11     9    12   ar
    12    10    13   ar
    13    11    14    1
    14    12    15   ar
    15    13    16   ar
    16     6     7   ar
    17    10    12   ar
    18    15    16   ar
    19     4    17    1
    20     6    18    1
    21     8    19    1
    22    14    20    1
    23    14    21    1
    24    14    22    1
    25    15    23    1
    26    16    24    1
@<TRIPOS>SUBSTRUCTURE
     1 UNL1        1 TEMP              0 ****  ****    0 ROOT


##########                                Name:                 116
##########                DOCK_Rotatable_Bonds:                   1
##########                         Heavy_Atoms:                  16
##########                    Molecular_Weight:             216.193
##########                       Formal_Charge:        -0.000100009
##########                     HBond_Acceptors:                   4
##########                        HBond_Donors:                   0
##########                    Continuous_Score:          -28.801792
##########               Continuous_vdw_energy:          -29.118275
##########                Continuous_es_energy:            0.316483
##########           Internal_energy_repulsive:            4.281652

@<TRIPOS>MOLECULE
116
 24 26 1 0 0
SMALL
GASTEIGER


@<TRIPOS>ATOM
      1 O          21.1119    7.9655   42.8606 O.2     1  UNL1       -0.2452
      2 C          21.7180    8.4132   41.9093 C.ar    1  UNL1        0.3372
      3 O          21.6338    7.8440   40.6850 O.2     1  UNL1       -0.4219
      4 C          22.5754    9.6015   41.9716 C.ar    1  UNL1        0.0237
      5 C          22.3101    8.2594   39.5516 C.ar    1  UNL1        0.1461
      6 C          23.2362   10.1203   40.8093 C.ar    1  UNL1       -0.0408
      7 C          23.0944    9.4783   39.5806 C.ar    1  UNL1        0.0600
      8 C          22.1975    7.4000   38.4005 C.ar    1  UNL1        0.0245
      9 C          23.6406    9.9155   38.3581 C.ar    1  UNL1        0.1414
     10 C          22.5176    8.0107   37.1367 C.ar    1  UNL1        0.1418
     11 O          24.4315   11.0267   38.0733 O.3     1  UNL1       -0.4937
     12 C          23.3424    9.1701   37.1585 C.ar    1  UNL1        0.0625
     13 O          22.7789    7.2983   35.9954 O.2     1  UNL1       -0.4627
     14 C          25.0027   11.9750   38.9992 C.3     1  UNL1        0.0788
     15 C          24.0991    9.1743   35.9492 C.ar    1  UNL1       -0.0126
     16 C          23.6882    8.0467   35.2755 C.ar    1  UNL1        0.0933
     17 H          22.6479   10.0743   42.9453 H       1  UNL1        0.0689
     18 H          23.7913   11.0323   40.9716 H       1  UNL1        0.0628
     19 H          21.5779    6.5122   38.3042 H       1  UNL1        0.0692
     20 H          25.5760   12.7121   38.4307 H       1  UNL1        0.0660
     21 H          25.6751   11.4586   39.6900 H       1  UNL1        0.0660
     22 H          24.2025   12.4868   39.5400 H       1  UNL1        0.0660
     23 H          24.8794    9.8737   35.6690 H       1  UNL1        0.0656
     24 H          23.9934    7.6088   34.3327 H       1  UNL1        0.1030
@<TRIPOS>BOND
     1     1     2    2
     2     2     3   ar
     3     2     4   ar
     4     3     5   ar
     5     4     6   ar
     6     5     7   ar
     7     5     8   ar
     8     7     9   ar
     9     8    10   ar
    10     9    11    1
    11     9    12   ar
    12    10    13   ar
    13    11    14    1
    14    12    15   ar
    15    13    16   ar
    16     6     7   ar
    17    10    12   ar
    18    15    16   ar
    19     4    17    1
    20     6    18    1
    21     8    19    1
    22    14    20    1
    23    14    21    1
    24    14    22    1
    25    15    23    1
    26    16    24    1
@<TRIPOS>SUBSTRUCTURE
     1 UNL1        1 TEMP              0 ****  ****    0 ROOT


##########                                Name:                 116
##########                DOCK_Rotatable_Bonds:                   1
##########                         Heavy_Atoms:                  16
##########                    Molecular_Weight:             216.193
##########                       Formal_Charge:        -0.000100009
##########                     HBond_Acceptors:                   4
##########                        HBond_Donors:                   0
##########                    Continuous_Score:          -28.431404
##########               Continuous_vdw_energy:          -28.485373
##########                Continuous_es_energy:            0.053968
##########           Internal_energy_repulsive:            4.249831

@<TRIPOS>MOLECULE
116
 24 26 1 0 0
SMALL
GASTEIGER


@<TRIPOS>ATOM
      1 O          21.1132    7.6879   42.7681 O.2     1  UNL1       -0.2452
      2 C          21.7306    8.1660   41.8392 C.ar    1  UNL1        0.3372
      3 O          21.5818    7.7023   40.5771 O.2     1  UNL1       -0.4219
      4 C          22.6717    9.2831   41.9713 C.ar    1  UNL1        0.0237
      5 C          22.2634    8.1576   39.4624 C.ar    1  UNL1        0.1461
      6 C          23.3446    9.8448   40.8362 C.ar    1  UNL1       -0.0408
      7 C          23.1331    9.3130   39.5655 C.ar    1  UNL1        0.0600
      8 C          22.0671    7.4016   38.2516 C.ar    1  UNL1        0.0245
      9 C          23.6847    9.8062   38.3670 C.ar    1  UNL1        0.1414
     10 C          22.4047    8.0862   37.0310 C.ar    1  UNL1        0.1418
     11 O          24.5470   10.8787   38.1489 O.3     1  UNL1       -0.4937
     12 C          23.3103    9.1802   37.1214 C.ar    1  UNL1        0.0625
     13 O          22.5919    7.4496   35.8319 O.2     1  UNL1       -0.4627
     14 C          25.1738   11.7320   39.1296 C.3     1  UNL1        0.0788
     15 C          24.0413    9.2271   35.8972 C.ar    1  UNL1       -0.0126
     16 C          23.5378    8.1875   35.1491 C.ar    1  UNL1        0.0933
     17 H          22.7970    9.6716   42.9764 H       1  UNL1        0.0689
     18 H          23.9664   10.7003   41.0543 H       1  UNL1        0.0628
     19 H          21.3839    6.5694   38.1027 H       1  UNL1        0.0692
     20 H          25.7961   12.4627   38.6060 H       1  UNL1        0.0660
     21 H          25.8080   11.1335   39.7895 H       1  UNL1        0.0660
     22 H          24.4056   12.2619   39.6989 H       1  UNL1        0.0660
     23 H          24.8638    9.8905   35.6523 H       1  UNL1        0.0656
     24 H          23.7922    7.8050   34.1678 H       1  UNL1        0.1030
@<TRIPOS>BOND
     1     1     2    2
     2     2     3   ar
     3     2     4   ar
     4     3     5   ar
     5     4     6   ar
     6     5     7   ar
     7     5     8   ar
     8     7     9   ar
     9     8    10   ar
    10     9    11    1
    11     9    12   ar
    12    10    13   ar
    13    11    14    1
    14    12    15   ar
    15    13    16   ar
    16     6     7   ar
    17    10    12   ar
    18    15    16   ar
    19     4    17    1
    20     6    18    1
    21     8    19    1
    22    14    20    1
    23    14    21    1
    24    14    22    1
    25    15    23    1
    26    16    24    1
@<TRIPOS>SUBSTRUCTURE
     1 UNL1        1 TEMP              0 ****  ****    0 ROOT


##########                                Name:                 117
##########                DOCK_Rotatable_Bonds:                   3
##########                         Heavy_Atoms:                  20
##########                    Molecular_Weight:             268.269
##########                       Formal_Charge:        -0.000100031
##########                     HBond_Acceptors:                   4
##########                        HBond_Donors:                   1
##########                    Continuous_Score:          -33.342506
##########               Continuous_vdw_energy:          -31.244698
##########                Continuous_es_energy:           -2.097808
##########           Internal_energy_repulsive:            4.306129

@<TRIPOS>MOLECULE
117
 32 34 1 0 0
SMALL
GASTEIGER


@<TRIPOS>ATOM
      1 O          11.0116   10.8874   42.7056 O.2     1  UNL1       -0.2864
      2 C          11.1630   12.0111   43.1502 C.ar    1  UNL1        0.2001
      3 C          10.1399   13.0670   43.0638 C.ar    1  UNL1        0.0643
      4 C          12.3953   12.4386   43.8198 C.ar    1  UNL1        0.0648
      5 C           9.1509   12.9077   42.5810 C.ar    1  UNL1       -0.0110
      6 C          10.3647   14.3277   43.5839 C.ar    1  UNL1        0.1038
      7 C          12.5181   13.7319   44.3066 C.ar    1  UNL1        0.1419
      8 C          13.5216   11.5459   43.9961 C.ar    1  UNL1       -0.0439
      9 C           8.2606   11.9392   43.0855 C.ar    1  UNL1       -0.0504
     10 C           8.7493   13.6985   41.4869 C.ar    1  UNL1       -0.0504
     11 O          11.5376   14.7071   44.2191 O.2     1  UNL1       -0.4620
     12 C          13.7470   14.1232   44.9586 C.ar    1  UNL1        0.0228
     13 C          14.6952   11.9451   44.6249 C.ar    1  UNL1       -0.0193
     14 C           7.0049   11.7683   42.5049 C.ar    1  UNL1       -0.0194
     15 C           7.4917   13.5151   40.9164 C.ar    1  UNL1       -0.0194
     16 C          14.8109   13.2398   45.1098 C.ar    1  UNL1        0.1204
     17 C           6.6154   12.5567   41.4186 C.ar    1  UNL1        0.1201
     18 O          15.9622   13.6308   45.7280 O.3     1  UNL1       -0.5066
     19 O           5.3799   12.4323   40.8085 O.3     1  UNL1       -0.4951
     20 C           4.4082   13.5020   40.7436 C.3     1  UNL1        0.0788
     21 H           9.6795   15.1688   43.5703 H       1  UNL1        0.1037
     22 H          13.4392   10.5293   43.6196 H       1  UNL1        0.0627
     23 H           8.5326   11.3179   43.9372 H       1  UNL1        0.0625
     24 H           9.4046   14.4651   41.0766 H       1  UNL1        0.0625
     25 H          13.8185   15.1421   45.3317 H       1  UNL1        0.0691
     26 H          15.5184   11.2431   44.7357 H       1  UNL1        0.0654
     27 H           6.3377   11.0166   42.9165 H       1  UNL1        0.0654
     28 H           7.1882   14.1323   40.0741 H       1  UNL1        0.0654
     29 H          16.3899   12.8681   46.1580 H       1  UNL1        0.2921
     30 H           3.5321   13.1477   40.1938 H       1  UNL1        0.0660
     31 H           4.8424   14.3594   40.2218 H       1  UNL1        0.0660
     32 H           4.1105   13.7876   41.7561 H       1  UNL1        0.0660
@<TRIPOS>BOND
     1     1     2    2
     2     2     3   ar
     3     2     4   ar
     4     3     5    1
     5     3     6   ar
     6     4     7   ar
     7     4     8   ar
     8     5     9   ar
     9     5    10   ar
    10     6    11   ar
    11     7    12   ar
    12     8    13   ar
    13     9    14   ar
    14    10    15   ar
    15    12    16   ar
    16    14    17   ar
    17    16    18    1
    18    17    19    1
    19    19    20    1
    20     7    11   ar
    21    13    16   ar
    22    15    17   ar
    23     6    21    1
    24     8    22    1
    25     9    23    1
    26    10    24    1
    27    12    25    1
    28    13    26    1
    29    14    27    1
    30    15    28    1
    31    18    29    1
    32    20    30    1
    33    20    31    1
    34    20    32    1
@<TRIPOS>SUBSTRUCTURE
     1 UNL1        1 TEMP              0 ****  ****    0 ROOT


##########                                Name:                 117
##########                DOCK_Rotatable_Bonds:                   3
##########                         Heavy_Atoms:                  20
##########                    Molecular_Weight:             268.269
##########                       Formal_Charge:        -0.000100031
##########                     HBond_Acceptors:                   4
##########                        HBond_Donors:                   1
##########                    Continuous_Score:          -31.356924
##########               Continuous_vdw_energy:          -28.898397
##########                Continuous_es_energy:           -2.458526
##########           Internal_energy_repulsive:            5.230501

@<TRIPOS>MOLECULE
117
 32 34 1 0 0
SMALL
GASTEIGER


@<TRIPOS>ATOM
      1 O          10.1274   11.0236   43.0716 O.2     1  UNL1       -0.2864
      2 C          10.4797   12.1212   43.4647 C.ar    1  UNL1        0.2001
      3 C           9.5616   13.2605   43.6325 C.ar    1  UNL1        0.0643
      4 C          11.8707   12.4300   43.8099 C.ar    1  UNL1        0.0648
      5 C           8.4745   13.1946   43.4083 C.ar    1  UNL1       -0.0110
      6 C          10.0150   14.4868   44.0808 C.ar    1  UNL1        0.1038
      7 C          12.2203   13.6979   44.2510 C.ar    1  UNL1        0.1419
      8 C          12.9245   11.4427   43.7038 C.ar    1  UNL1       -0.0439
      9 C           8.0274   13.0999   42.0754 C.ar    1  UNL1       -0.0504
     10 C           7.5266   13.1586   44.4493 C.ar    1  UNL1       -0.0504
     11 O          11.3361   14.7534   44.4073 O.2     1  UNL1       -0.4620
     12 C          13.6007   13.9714   44.5801 C.ar    1  UNL1        0.0228
     13 C          14.2464   11.7291   44.0240 C.ar    1  UNL1       -0.0193
     14 C           6.6671   12.9764   41.7973 C.ar    1  UNL1       -0.0194
     15 C           6.1703   13.0360   44.1556 C.ar    1  UNL1       -0.0194
     16 C          14.5888   12.9991   44.4650 C.ar    1  UNL1        0.1204
     17 C           5.7334   12.9428   42.8368 C.ar    1  UNL1        0.1201
     18 O          15.8859   13.2794   44.7803 O.3     1  UNL1       -0.5066
     19 O           4.3733   12.8164   42.6172 O.3     1  UNL1       -0.4951
     20 C           3.3844   12.8677   43.6719 C.3     1  UNL1        0.0788
     21 H           9.4226   15.3825   44.2361 H       1  UNL1        0.1037
     22 H          12.6649   10.4445   43.3596 H       1  UNL1        0.0627
     23 H           8.7324   13.1128   41.2459 H       1  UNL1        0.0625
     24 H           7.8341   13.2171   45.4921 H       1  UNL1        0.0625
     25 H          13.8491   14.9728   44.9237 H       1  UNL1        0.0691
     26 H          15.0080   10.9584   43.9289 H       1  UNL1        0.0654
     27 H           6.3512   12.9019   40.7608 H       1  UNL1        0.0654
     28 H           5.4453   13.0055   44.9654 H       1  UNL1        0.0654
     29 H          16.4490   12.5016   44.6142 H       1  UNL1        0.2921
     30 H           2.3913   12.7616   43.2273 H       1  UNL1        0.0660
     31 H           3.4503   13.8291   44.1887 H       1  UNL1        0.0660
     32 H           3.5569   12.0485   44.3751 H       1  UNL1        0.0660
@<TRIPOS>BOND
     1     1     2    2
     2     2     3   ar
     3     2     4   ar
     4     3     5    1
     5     3     6   ar
     6     4     7   ar
     7     4     8   ar
     8     5     9   ar
     9     5    10   ar
    10     6    11   ar
    11     7    12   ar
    12     8    13   ar
    13     9    14   ar
    14    10    15   ar
    15    12    16   ar
    16    14    17   ar
    17    16    18    1
    18    17    19    1
    19    19    20    1
    20     7    11   ar
    21    13    16   ar
    22    15    17   ar
    23     6    21    1
    24     8    22    1
    25     9    23    1
    26    10    24    1
    27    12    25    1
    28    13    26    1
    29    14    27    1
    30    15    28    1
    31    18    29    1
    32    20    30    1
    33    20    31    1
    34    20    32    1
@<TRIPOS>SUBSTRUCTURE
     1 UNL1        1 TEMP              0 ****  ****    0 ROOT


##########                                Name:                 117
##########                DOCK_Rotatable_Bonds:                   3
##########                         Heavy_Atoms:                  20
##########                    Molecular_Weight:             268.269
##########                       Formal_Charge:        -0.000100031
##########                     HBond_Acceptors:                   4
##########                        HBond_Donors:                   1
##########                    Continuous_Score:          -32.946480
##########               Continuous_vdw_energy:          -29.657822
##########                Continuous_es_energy:           -3.288659
##########           Internal_energy_repulsive:            3.155603

@<TRIPOS>MOLECULE
117
 32 34 1 0 0
SMALL
GASTEIGER


@<TRIPOS>ATOM
      1 O          10.1674   11.0776   42.8537 O.2     1  UNL1       -0.2864
      2 C          10.5236   12.1655   43.2696 C.ar    1  UNL1        0.2001
      3 C           9.6645   13.3619   43.2637 C.ar    1  UNL1        0.0643
      4 C          11.8612   12.4038   43.8203 C.ar    1  UNL1        0.0648
      5 C           8.6231   13.3522   42.8739 C.ar    1  UNL1       -0.0110
      6 C          10.1200   14.5741   43.7466 C.ar    1  UNL1        0.1038
      7 C          12.2181   13.6635   44.2790 C.ar    1  UNL1        0.1419
      8 C          12.8542   11.3533   43.9048 C.ar    1  UNL1       -0.0439
      9 C           8.3491   13.7965   41.5652 C.ar    1  UNL1       -0.0504
     10 C           7.5658   12.8552   43.6604 C.ar    1  UNL1       -0.0504
     11 O          11.3890   14.7737   44.2690 O.2     1  UNL1       -0.4620
     12 C          13.5456   13.8666   44.8129 C.ar    1  UNL1        0.0228
     13 C          14.1262   11.5725   44.4204 C.ar    1  UNL1       -0.0193
     14 C           7.0496   13.7459   41.0633 C.ar    1  UNL1       -0.0194
     15 C           6.2721   12.8121   43.1453 C.ar    1  UNL1       -0.0194
     16 C          14.4761   12.8346   44.8778 C.ar    1  UNL1        0.1204
     17 C           6.0063   13.2523   41.8514 C.ar    1  UNL1        0.1201
     18 O          15.7240   13.0490   45.3850 O.3     1  UNL1       -0.5066
     19 O           4.7003   13.1751   41.4014 O.3     1  UNL1       -0.4951
     20 C           4.3290   13.2555   40.0056 C.3     1  UNL1        0.0788
     21 H           9.5687   15.5078   43.7851 H       1  UNL1        0.1037
     22 H          12.5881   10.3609   43.5491 H       1  UNL1        0.0627
     23 H           9.1433   14.1761   40.9247 H       1  UNL1        0.0625
     24 H           7.7400   12.4918   44.6718 H       1  UNL1        0.0625
     25 H          13.8009   14.8629   45.1661 H       1  UNL1        0.0691
     26 H          14.8430   10.7556   44.4647 H       1  UNL1        0.0654
     27 H           6.8679   14.0919   40.0499 H       1  UNL1        0.0654
     28 H           5.4621   12.4236   43.7580 H       1  UNL1        0.0654
     29 H          16.2680   12.2457   45.2930 H       1  UNL1        0.2921
     30 H           3.2440   13.1482   39.9242 H       1  UNL1        0.0660
     31 H           4.8165   12.4493   39.4504 H       1  UNL1        0.0660
     32 H           4.6290   14.2265   39.6026 H       1  UNL1        0.0660
@<TRIPOS>BOND
     1     1     2    2
     2     2     3   ar
     3     2     4   ar
     4     3     5    1
     5     3     6   ar
     6     4     7   ar
     7     4     8   ar
     8     5     9   ar
     9     5    10   ar
    10     6    11   ar
    11     7    12   ar
    12     8    13   ar
    13     9    14   ar
    14    10    15   ar
    15    12    16   ar
    16    14    17   ar
    17    16    18    1
    18    17    19    1
    19    19    20    1
    20     7    11   ar
    21    13    16   ar
    22    15    17   ar
    23     6    21    1
    24     8    22    1
    25     9    23    1
    26    10    24    1
    27    12    25    1
    28    13    26    1
    29    14    27    1
    30    15    28    1
    31    18    29    1
    32    20    30    1
    33    20    31    1
    34    20    32    1
@<TRIPOS>SUBSTRUCTURE
     1 UNL1        1 TEMP              0 ****  ****    0 ROOT


##########                                Name:                 119
##########                DOCK_Rotatable_Bonds:                   4
##########                         Heavy_Atoms:                  20
##########                    Molecular_Weight:             270.241
##########                       Formal_Charge:         0.000100017
##########                     HBond_Acceptors:                   5
##########                        HBond_Donors:                   3
##########                    Continuous_Score:          -32.958317
##########               Continuous_vdw_energy:          -28.418236
##########                Continuous_es_energy:           -4.540082
##########           Internal_energy_repulsive:            4.526686

@<TRIPOS>MOLECULE
119
 30 32 1 0 0
SMALL
GASTEIGER


@<TRIPOS>ATOM
      1 O          10.2745   11.2313   42.8487 O.2     1  UNL1       -0.2863
      2 C          10.5953   12.3421   43.2342 C.ar    1  UNL1        0.2037
      3 C          11.9096   12.6318   43.8525 C.ar    1  UNL1        0.1060
      4 C           9.6830   13.5008   43.1447 C.ar    1  UNL1        0.0644
      5 C          12.2110   13.9226   44.2675 C.ar    1  UNL1        0.1454
      6 C          12.9325   11.6147   44.0693 C.ar    1  UNL1        0.1347
      7 C           8.6395   13.4171   42.7358 C.ar    1  UNL1       -0.0110
      8 C          10.0975   14.7427   43.5903 C.ar    1  UNL1        0.1038
      9 O          11.3613   15.0105   44.1097 O.2     1  UNL1       -0.4618
     10 C          13.5005   14.1896   44.8859 C.ar    1  UNL1        0.0231
     11 O          12.7471   10.3252   43.6904 O.3     1  UNL1       -0.5058
     12 C          14.1501   11.8996   44.6690 C.ar    1  UNL1        0.0223
     13 C           8.2412   13.9489   41.4888 C.ar    1  UNL1       -0.0504
     14 C           7.6757   12.7003   43.4777 C.ar    1  UNL1       -0.0504
     15 C          14.4479   13.1835   45.0830 C.ar    1  UNL1        0.1239
     16 C           6.9368   13.7680   41.0088 C.ar    1  UNL1       -0.0196
     17 C           6.3773   12.5298   42.9871 C.ar    1  UNL1       -0.0196
     18 O          15.6719   13.3933   45.6635 O.3     1  UNL1       -0.5065
     19 C           5.9952   13.0548   41.7524 C.ar    1  UNL1        0.1169
     20 O           4.7051   12.8529   41.3095 O.3     1  UNL1       -0.5068
     21 H           9.5166   15.6586   43.5831 H       1  UNL1        0.1037
     22 H          13.7103   15.2104   45.1965 H       1  UNL1        0.0691
     23 H          13.5756    9.8655   43.9030 H       1  UNL1        0.2922
     24 H          14.8802   11.1052   44.8124 H       1  UNL1        0.0691
     25 H           8.9492   14.5009   40.8741 H       1  UNL1        0.0625
     26 H           7.9266   12.2575   44.4404 H       1  UNL1        0.0625
     27 H           6.6605   14.1856   40.0437 H       1  UNL1        0.0654
     28 H           5.6554   11.9696   43.5771 H       1  UNL1        0.0654
     29 H          16.0251   12.6203   46.1300 H       1  UNL1        0.2921
     30 H           4.4077   13.4255   40.5652 H       1  UNL1        0.2921
@<TRIPOS>BOND
     1     1     2    2
     2     2     3   ar
     3     2     4   ar
     4     3     5   ar
     5     3     6   ar
     6     4     7    1
     7     4     8   ar
     8     5     9   ar
     9     5    10   ar
    10     6    11    1
    11     6    12   ar
    12     7    13   ar
    13     7    14   ar
    14    10    15   ar
    15    13    16   ar
    16    14    17   ar
    17    15    18    1
    18    16    19   ar
    19    19    20    1
    20     8     9   ar
    21    12    15   ar
    22    17    19   ar
    23     8    21    1
    24    10    22    1
    25    11    23    1
    26    12    24    1
    27    13    25    1
    28    14    26    1
    29    16    27    1
    30    17    28    1
    31    18    29    1
    32    20    30    1
@<TRIPOS>SUBSTRUCTURE
     1 UNL1        1 TEMP              0 ****  ****    0 ROOT


##########                                Name:                 119
##########                DOCK_Rotatable_Bonds:                   4
##########                         Heavy_Atoms:                  20
##########                    Molecular_Weight:             270.241
##########                       Formal_Charge:         0.000100017
##########                     HBond_Acceptors:                   5
##########                        HBond_Donors:                   3
##########                    Continuous_Score:          -32.608425
##########               Continuous_vdw_energy:          -28.188686
##########                Continuous_es_energy:           -4.419738
##########           Internal_energy_repulsive:            3.800981

@<TRIPOS>MOLECULE
119
 30 32 1 0 0
SMALL
GASTEIGER


@<TRIPOS>ATOM
      1 O          10.3273   11.1368   42.9468 O.2     1  UNL1       -0.2863
      2 C          10.6082   12.2523   43.3493 C.ar    1  UNL1        0.2037
      3 C          11.9192   12.5844   43.9527 C.ar    1  UNL1        0.1060
      4 C           9.6473   13.3734   43.2971 C.ar    1  UNL1        0.0644
      5 C          12.1738   13.8784   44.3886 C.ar    1  UNL1        0.1454
      6 C          12.9867   11.6068   44.1332 C.ar    1  UNL1        0.1347
      7 C           8.6016   13.2543   42.9028 C.ar    1  UNL1       -0.0110
      8 C          10.0175   14.6226   43.7609 C.ar    1  UNL1        0.1038
      9 O          11.2774   14.9329   44.2659 O.2     1  UNL1       -0.4618
     10 C          13.4611   14.1869   44.9922 C.ar    1  UNL1        0.0231
     11 O          12.8487   10.3182   43.7316 O.3     1  UNL1       -0.5058
     12 C          14.2012   11.9307   44.7195 C.ar    1  UNL1        0.0223
     13 C           7.5189   12.7864   43.6807 C.ar    1  UNL1       -0.0504
     14 C           8.3313   13.6371   41.5711 C.ar    1  UNL1       -0.0504
     15 C          14.4525   13.2177   45.1544 C.ar    1  UNL1        0.1239
     16 C           6.2255   12.7077   43.1467 C.ar    1  UNL1       -0.0196
     17 C           7.0360   13.5510   41.0511 C.ar    1  UNL1       -0.0196
     18 O          15.6761   13.4669   45.7198 O.3     1  UNL1       -0.5065
     19 C           5.9729   13.0919   41.8289 C.ar    1  UNL1        0.1169
     20 O           4.7127   13.0329   41.2721 O.3     1  UNL1       -0.5068
     21 H           9.3990   15.5135   43.7811 H       1  UNL1        0.1037
     22 H          13.6335   15.2094   45.3199 H       1  UNL1        0.0691
     23 H          13.7019    9.8918   43.9134 H       1  UNL1        0.2922
     24 H          14.9657   11.1647   44.8357 H       1  UNL1        0.0691
     25 H           7.6728   12.4884   44.7158 H       1  UNL1        0.0625
     26 H           9.1229   14.0162   40.9264 H       1  UNL1        0.0625
     27 H           5.4114   12.3471   43.7707 H       1  UNL1        0.0654
     28 H           6.8545   13.8563   40.0231 H       1  UNL1        0.0654
     29 H          16.1958   12.6694   45.9034 H       1  UNL1        0.2921
     30 H           4.6004   13.4864   40.4049 H       1  UNL1        0.2921
@<TRIPOS>BOND
     1     1     2    2
     2     2     3   ar
     3     2     4   ar
     4     3     5   ar
     5     3     6   ar
     6     4     7    1
     7     4     8   ar
     8     5     9   ar
     9     5    10   ar
    10     6    11    1
    11     6    12   ar
    12     7    13   ar
    13     7    14   ar
    14    10    15   ar
    15    13    16   ar
    16    14    17   ar
    17    15    18    1
    18    16    19   ar
    19    19    20    1
    20     8     9   ar
    21    12    15   ar
    22    17    19   ar
    23     8    21    1
    24    10    22    1
    25    11    23    1
    26    12    24    1
    27    13    25    1
    28    14    26    1
    29    16    27    1
    30    17    28    1
    31    18    29    1
    32    20    30    1
@<TRIPOS>SUBSTRUCTURE
     1 UNL1        1 TEMP              0 ****  ****    0 ROOT


##########                                Name:                 119
##########                DOCK_Rotatable_Bonds:                   4
##########                         Heavy_Atoms:                  20
##########                    Molecular_Weight:             270.241
##########                       Formal_Charge:         0.000100017
##########                     HBond_Acceptors:                   5
##########                        HBond_Donors:                   3
##########                    Continuous_Score:          -32.099228
##########               Continuous_vdw_energy:          -28.513922
##########                Continuous_es_energy:           -3.585308
##########           Internal_energy_repulsive:            3.811858

@<TRIPOS>MOLECULE
119
 30 32 1 0 0
SMALL
GASTEIGER


@<TRIPOS>ATOM
      1 O          10.4909   11.2188   43.1120 O.2     1  UNL1       -0.2863
      2 C          10.7920   12.3416   43.4781 C.ar    1  UNL1        0.2037
      3 C          12.1211   12.6765   44.0392 C.ar    1  UNL1        0.1060
      4 C           9.8403   13.4702   43.4214 C.ar    1  UNL1        0.0644
      5 C          12.3984   13.9788   44.4346 C.ar    1  UNL1        0.1454
      6 C          13.1840   11.6936   44.2178 C.ar    1  UNL1        0.1347
      7 C           8.7838   13.3511   43.0570 C.ar    1  UNL1       -0.0110
      8 C          10.2334   14.7273   43.8428 C.ar    1  UNL1        0.1038
      9 O          11.5086   15.0383   44.3074 O.2     1  UNL1       -0.4618
     10 C          13.7034   14.2903   44.9971 C.ar    1  UNL1        0.0231
     11 O          13.0241   10.3965   43.8535 O.3     1  UNL1       -0.5058
     12 C          14.4160   12.0207   44.7645 C.ar    1  UNL1        0.0223
     13 C           8.4084   13.4402   41.6978 C.ar    1  UNL1       -0.0504
     14 C           7.7733   13.0462   43.9947 C.ar    1  UNL1       -0.0504
     15 C          14.6899   13.3160   45.1591 C.ar    1  UNL1        0.1239
     16 C           7.0812   13.2314   41.2988 C.ar    1  UNL1       -0.0196
     17 C           6.4527   12.8427   43.5822 C.ar    1  UNL1       -0.0196
     18 O          15.9298   13.5679   45.6866 O.3     1  UNL1       -0.5065
     19 C           6.0931   12.9284   42.2370 C.ar    1  UNL1        0.1169
     20 O           4.7789   12.7119   41.8804 O.3     1  UNL1       -0.5068
     21 H           9.6237   15.6244   43.8556 H       1  UNL1        0.1037
     22 H          13.8935   15.3191   45.2935 H       1  UNL1        0.0691
     23 H          13.9129   10.0055   43.8707 H       1  UNL1        0.2922
     24 H          15.1764   11.2506   44.8809 H       1  UNL1        0.0691
     25 H           9.1515   13.6629   40.9347 H       1  UNL1        0.0625
     26 H           8.0037   12.9530   45.0549 H       1  UNL1        0.0625
     27 H           6.8230   13.3029   40.2450 H       1  UNL1        0.0654
     28 H           5.6945   12.6050   44.3248 H       1  UNL1        0.0654
     29 H          16.5109   12.7924   45.7166 H       1  UNL1        0.2921
     30 H           4.5725   12.7866   40.9201 H       1  UNL1        0.2921
@<TRIPOS>BOND
     1     1     2    2
     2     2     3   ar
     3     2     4   ar
     4     3     5   ar
     5     3     6   ar
     6     4     7    1
     7     4     8   ar
     8     5     9   ar
     9     5    10   ar
    10     6    11    1
    11     6    12   ar
    12     7    13   ar
    13     7    14   ar
    14    10    15   ar
    15    13    16   ar
    16    14    17   ar
    17    15    18    1
    18    16    19   ar
    19    19    20    1
    20     8     9   ar
    21    12    15   ar
    22    17    19   ar
    23     8    21    1
    24    10    22    1
    25    11    23    1
    26    12    24    1
    27    13    25    1
    28    14    26    1
    29    16    27    1
    30    17    28    1
    31    18    29    1
    32    20    30    1
@<TRIPOS>SUBSTRUCTURE
     1 UNL1        1 TEMP              0 ****  ****    0 ROOT


##########                                Name:                 120
##########                DOCK_Rotatable_Bonds:                   7
##########                         Heavy_Atoms:                  40
##########                    Molecular_Weight:             542.718
##########                       Formal_Charge:         0.000700511
##########                     HBond_Acceptors:                   6
##########                        HBond_Donors:                   0
##########                    Continuous_Score:          -44.832306
##########               Continuous_vdw_energy:          -43.546921
##########                Continuous_es_energy:           -1.285384
##########           Internal_energy_repulsive:           40.934711

@<TRIPOS>MOLECULE
120
 82 88 1 0 0
SMALL
GASTEIGER


@<TRIPOS>ATOM
      1 O           4.8646   13.2543   45.7827 O.2     1  UNL1       -0.2495
      2 C           5.2155   13.8008   44.7527 C.2     1  UNL1        0.3224
      3 O           4.4779   14.8197   44.2032 O.3     1  UNL1       -0.4604
      4 C           6.4150   13.3566   43.9628 C.3     1  UNL1        0.1177
      5 C           3.2630   15.2523   44.9029 C.3     1  UNL1        0.1060
      6 C           6.2709   13.8549   42.5789 C.ar    1  UNL1       -0.0223
      7 C           6.5469   11.8976   43.7232 C.ar    1  UNL1       -0.0263
      8 C           7.6212   13.8537   44.7708 C.3     1  UNL1       -0.0280
      9 C           3.5543   15.8373   46.3100 C.3     1  UNL1        0.0000
     10 C           2.1816   14.1359   45.0622 C.3     1  UNL1        0.0000
     11 C           7.2709   14.6526   41.9971 C.ar    1  UNL1       -0.0291
     12 C           5.1465   13.5566   41.7869 C.ar    1  UNL1       -0.0569
     13 C           7.7676   11.2341   43.4578 C.ar    1  UNL1       -0.0572
     14 C           5.4542   11.0729   44.0582 C.ar    1  UNL1       -0.0572
     15 C           8.2643   15.1471   44.2418 C.3     1  UNL1       -0.0344
     16 C           2.2263   16.3106   46.9946 C.3     1  UNL1        0.0138
     17 C           1.0236   14.5994   46.0224 C.3     1  UNL1        0.0138
     18 C           7.1794   15.1090   40.6851 C.ar    1  UNL1       -0.0575
     19 C           8.4493   14.9364   42.7534 C.3     1  UNL1        0.0817
     20 C           5.0580   13.9962   40.4690 C.ar    1  UNL1       -0.0614
     21 C           7.8627    9.8431   43.4680 C.ar    1  UNL1       -0.0615
     22 C           5.5471    9.6828   44.0622 C.ar    1  UNL1       -0.0615
     23 N           1.0660   16.0793   46.0881 N.3     1  UNL1       -0.2992
     24 C           1.9066   15.3849   48.1829 C.3     1  UNL1       -0.0358
     25 C           1.2409   14.1705   47.5026 C.3     1  UNL1       -0.0358
     26 C           6.0772   14.7718   39.9094 C.ar    1  UNL1       -0.0615
     27 C           9.6772   14.1841   42.4088 C.2     1  UNL1        0.3148
     28 C           6.7538    9.0632   43.7683 C.ar    1  UNL1       -0.0617
     29 C          -0.2001   16.7416   46.4863 C.3     1  UNL1       -0.0122
     30 O           9.8332   13.6262   41.3390 O.2     1  UNL1       -0.2502
     31 O          10.5859   14.1338   43.4099 O.3     1  UNL1       -0.4608
     32 C          12.0191   14.0421   43.1848 C.3     1  UNL1        0.1059
     33 C          12.5585   12.5856   43.1816 C.3     1  UNL1        0.0000
     34 C          12.8499   14.9566   44.1352 C.3     1  UNL1        0.0000
     35 C          14.1137   12.5705   43.0006 C.3     1  UNL1        0.0138
     36 C          14.3720   14.6147   44.0534 C.3     1  UNL1        0.0138
     37 N          14.6136   13.9504   42.7496 N.3     1  UNL1       -0.2992
     38 C          14.7903   12.2115   44.3384 C.3     1  UNL1       -0.0358
     39 C          14.7933   13.5496   45.1029 C.3     1  UNL1       -0.0358
     40 C          16.0053   14.0468   42.2536 C.3     1  UNL1       -0.0122
     41 H           2.8178   16.0425   44.2867 H       1  UNL1        0.0735
     42 H           8.4068   13.0919   44.7305 H       1  UNL1        0.0283
     43 H           7.4010   13.9549   45.8369 H       1  UNL1        0.0283
     44 H           4.2499   16.6747   46.2625 H       1  UNL1        0.0316
     45 H           4.0463   15.0623   46.9017 H       1  UNL1        0.0316
     46 H           2.6307   13.2053   45.4187 H       1  UNL1        0.0316
     47 H           1.7563   13.9247   44.0787 H       1  UNL1        0.0316
     48 H           4.3402   12.9430   42.1920 H       1  UNL1        0.0621
     49 H           8.6863   11.7777   43.2639 H       1  UNL1        0.0621
     50 H           4.5067   11.5056   44.3670 H       1  UNL1        0.0621
     51 H           9.1829   15.3383   44.8090 H       1  UNL1        0.0277
     52 H           7.5797   15.9780   44.4490 H       1  UNL1        0.0277
     53 H           2.3079   17.3593   47.2978 H       1  UNL1        0.0464
     54 H           0.0622   14.2309   45.6497 H       1  UNL1        0.0464
     55 H           7.9776   15.7022   40.2541 H       1  UNL1        0.0621
     56 H           8.8819   15.9317   42.9408 H       1  UNL1        0.0462
     57 H           4.2003   13.7300   39.8562 H       1  UNL1        0.0618
     58 H           8.8186    9.3652   43.2675 H       1  UNL1        0.0618
     59 H           4.6809    9.0808   44.3283 H       1  UNL1        0.0618
     60 H           1.2016   15.8755   48.8582 H       1  UNL1        0.0281
     61 H           2.7898   15.1133   48.7652 H       1  UNL1        0.0281
     62 H           1.8620   13.2765   47.5863 H       1  UNL1        0.0281
     63 H           0.2819   13.9665   47.9849 H       1  UNL1        0.0281
     64 H           6.0161   15.1019   38.8792 H       1  UNL1        0.0618
     65 H           6.8362    7.9788   43.8004 H       1  UNL1        0.0618
     66 H          -0.1117   17.8180   46.3156 H       1  UNL1        0.0391
     67 H          -0.4358   16.5694   47.5383 H       1  UNL1        0.0391
     68 H          -1.0237   16.3615   45.8758 H       1  UNL1        0.0391
     69 H          12.1689   14.4245   42.1714 H       1  UNL1        0.0735
     70 H          12.0806   12.0228   42.3783 H       1  UNL1        0.0316
     71 H          12.2893   12.0801   44.1109 H       1  UNL1        0.0316
     72 H          12.5000   14.8994   45.1672 H       1  UNL1        0.0316
     73 H          12.7038   15.9913   43.8173 H       1  UNL1        0.0316
     74 H          14.3938   11.8766   42.2030 H       1  UNL1        0.0464
     75 H          14.9597   15.5297   44.1684 H       1  UNL1        0.0464
     76 H          15.8163   11.8805   44.1586 H       1  UNL1        0.0281
     77 H          14.2763   11.4163   44.8837 H       1  UNL1        0.0281
     78 H          14.1100   13.5178   45.9550 H       1  UNL1        0.0281
     79 H          15.7977   13.7583   45.4787 H       1  UNL1        0.0281
     80 H          16.0620   13.6179   41.2496 H       1  UNL1        0.0391
     81 H          16.7025   13.5202   42.9085 H       1  UNL1        0.0391
     82 H          16.2996   15.0985   42.1996 H       1  UNL1        0.0391
@<TRIPOS>BOND
     1     1     2    2
     2     2     3    1
     3     2     4    1
     4     3     5    1
     5     4     6    1
     6     4     7    1
     7     4     8    1
     8     5     9    1
     9     5    10    1
    10     6    11   ar
    11     6    12   ar
    12     7    13   ar
    13     7    14   ar
    14     8    15    1
    15     9    16    1
    16    10    17    1
    17    11    18   ar
    18    11    19    1
    19    12    20   ar
    20    13    21   ar
    21    14    22   ar
    22    16    23    1
    23    16    24    1
    24    17    25    1
    25    18    26   ar
    26    19    27    1
    27    21    28   ar
    28    23    29    1
    29    27    30    2
    30    27    31    1
    31    31    32    1
    32    32    33    1
    33    32    34    1
    34    33    35    1
    35    34    36    1
    36    35    37    1
    37    35    38    1
    38    36    39    1
    39    37    40    1
    40    15    19    1
    41    17    23    1
    42    20    26   ar
    43    22    28   ar
    44    24    25    1
    45    36    37    1
    46    38    39    1
    47     5    41    1
    48     8    42    1
    49     8    43    1
    50     9    44    1
    51     9    45    1
    52    10    46    1
    53    10    47    1
    54    12    48    1
    55    13    49    1
    56    14    50    1
    57    15    51    1
    58    15    52    1
    59    16    53    1
    60    17    54    1
    61    18    55    1
    62    19    56    1
    63    20    57    1
    64    21    58    1
    65    22    59    1
    66    24    60    1
    67    24    61    1
    68    25    62    1
    69    25    63    1
    70    26    64    1
    71    28    65    1
    72    29    66    1
    73    29    67    1
    74    29    68    1
    75    32    69    1
    76    33    70    1
    77    33    71    1
    78    34    72    1
    79    34    73    1
    80    35    74    1
    81    36    75    1
    82    38    76    1
    83    38    77    1
    84    39    78    1
    85    39    79    1
    86    40    80    1
    87    40    81    1
    88    40    82    1
@<TRIPOS>SUBSTRUCTURE
     1 UNL1        1 TEMP              0 ****  ****    0 ROOT


##########                                Name:                 120
##########                DOCK_Rotatable_Bonds:                   7
##########                         Heavy_Atoms:                  40
##########                    Molecular_Weight:             542.718
##########                       Formal_Charge:         0.000700511
##########                     HBond_Acceptors:                   6
##########                        HBond_Donors:                   0
##########                    Continuous_Score:          -44.774437
##########               Continuous_vdw_energy:          -43.946182
##########                Continuous_es_energy:           -0.828256
##########           Internal_energy_repulsive:           34.628994

@<TRIPOS>MOLECULE
120
 82 88 1 0 0
SMALL
GASTEIGER


@<TRIPOS>ATOM
      1 O           4.2926   15.2027   44.2153 O.2     1  UNL1       -0.2495
      2 C           5.0031   14.2756   44.5592 C.2     1  UNL1        0.3224
      3 O           4.7749   13.6050   45.7350 O.3     1  UNL1       -0.4604
      4 C           6.2200   13.8512   43.7851 C.3     1  UNL1        0.1177
      5 C           3.4214   13.6368   46.3005 C.3     1  UNL1        0.1060
      6 C           6.0684   14.3147   42.3900 C.ar    1  UNL1       -0.0223
      7 C           6.3976   12.3921   43.5781 C.ar    1  UNL1       -0.0263
      8 C           7.4059   14.4024   44.5880 C.3     1  UNL1       -0.0280
      9 C           3.1386   14.9273   47.1138 C.3     1  UNL1        0.0000
     10 C           3.0754   12.4128   47.2078 C.3     1  UNL1        0.0000
     11 C           7.0469   15.1299   41.7959 C.ar    1  UNL1       -0.0291
     12 C           4.9580   13.9651   41.5993 C.ar    1  UNL1       -0.0569
     13 C           7.6446   11.7546   43.3803 C.ar    1  UNL1       -0.0572
     14 C           5.3108   11.5464   43.8782 C.ar    1  UNL1       -0.0572
     15 C           8.0122   15.7031   44.0340 C.3     1  UNL1       -0.0344
     16 C           1.6714   14.9199   47.6647 C.3     1  UNL1        0.0138
     17 C           1.7125   12.6332   47.9641 C.3     1  UNL1        0.0138
     18 C           6.9489   15.5546   40.4738 C.ar    1  UNL1       -0.0575
     19 C           8.2119   15.4658   42.5515 C.3     1  UNL1        0.0817
     20 C           4.8637   14.3732   40.2716 C.ar    1  UNL1       -0.0614
     21 C           7.7725   10.3666   43.4199 C.ar    1  UNL1       -0.0615
     22 C           5.4366   10.1593   43.9114 C.ar    1  UNL1       -0.0615
     23 N           0.9628   13.6818   47.2329 N.3     1  UNL1       -0.2992
     24 C           1.7022   14.7651   49.1965 C.3     1  UNL1       -0.0358
     25 C           1.8872   13.2450   49.3844 C.3     1  UNL1       -0.0358
     26 C           5.8619   15.1673   39.7003 C.ar    1  UNL1       -0.0615
     27 C           9.4641   14.7443   42.2294 C.2     1  UNL1        0.3148
     28 C           6.6700    9.5649   43.6838 C.ar    1  UNL1       -0.0617
     29 C          -0.5066   13.6809   47.4351 C.3     1  UNL1       -0.0122
     30 O           9.4830   13.6899   41.6226 O.2     1  UNL1       -0.2502
     31 O          10.5778   15.3397   42.7146 O.3     1  UNL1       -0.4608
     32 C          11.8892   14.7126   42.7033 C.3     1  UNL1        0.1059
     33 C          11.9305   13.3392   43.4276 C.3     1  UNL1        0.0000
     34 C          13.0256   15.6556   43.2023 C.3     1  UNL1        0.0000
     35 C          13.3845   12.7580   43.4321 C.3     1  UNL1        0.0138
     36 C          14.3492   14.8611   43.4419 C.3     1  UNL1        0.0138
     37 N          14.2854   13.6256   42.6240 N.3     1  UNL1       -0.2992
     38 C          13.9890   12.8780   44.8450 C.3     1  UNL1       -0.0358
     39 C          14.4681   14.3417   44.9010 C.3     1  UNL1       -0.0358
     40 C          15.6017   13.0398   42.2828 C.3     1  UNL1       -0.0122
     41 H           2.7313   13.6081   45.4489 H       1  UNL1        0.0735
     42 H           8.2145   13.6643   44.5682 H       1  UNL1        0.0283
     43 H           7.1768   14.5200   45.6506 H       1  UNL1        0.0283
     44 H           3.2900   15.8239   46.5131 H       1  UNL1        0.0316
     45 H           3.8637   14.9775   47.9288 H       1  UNL1        0.0316
     46 H           3.8829   12.2115   47.9166 H       1  UNL1        0.0316
     47 H           2.9839   11.5282   46.5738 H       1  UNL1        0.0316
     48 H           4.1687   13.3360   42.0136 H       1  UNL1        0.0621
     49 H           8.5581   12.3174   43.2184 H       1  UNL1        0.0621
     50 H           4.3401   11.9606   44.1358 H       1  UNL1        0.0621
     51 H           8.9216   15.9344   44.6015 H       1  UNL1        0.0277
     52 H           7.3016   16.5169   44.2196 H       1  UNL1        0.0277
     53 H           1.1432   15.8259   47.3513 H       1  UNL1        0.0464
     54 H           1.1588   11.6899   48.0142 H       1  UNL1        0.0464
     55 H           7.7310   16.1625   40.0339 H       1  UNL1        0.0621
     56 H           8.6129   16.4777   42.7193 H       1  UNL1        0.0462
     57 H           4.0179   14.0676   39.6606 H       1  UNL1        0.0618
     58 H           8.7477    9.9093   43.2715 H       1  UNL1        0.0618
     59 H           4.5738    9.5405   44.1489 H       1  UNL1        0.0618
     60 H           0.7492   15.0872   49.6228 H       1  UNL1        0.0281
     61 H           2.4928   15.3504   49.6713 H       1  UNL1        0.0281
     62 H           2.8624   13.0123   49.8168 H       1  UNL1        0.0281
     63 H           1.1154   12.8674   50.0596 H       1  UNL1        0.0281
     64 H           5.7965   15.4729   38.6627 H       1  UNL1        0.0618
     65 H           6.7767    8.4835   43.7391 H       1  UNL1        0.0618
     66 H          -0.9695   14.3573   46.7114 H       1  UNL1        0.0391
     67 H          -0.7787   14.0022   48.4425 H       1  UNL1        0.0391
     68 H          -0.9017   12.6749   47.2696 H       1  UNL1        0.0391
     69 H          12.0926   14.5069   41.6489 H       1  UNL1        0.0735
     70 H          11.2496   12.6459   42.9314 H       1  UNL1        0.0316
     71 H          11.5697   13.4408   44.4528 H       1  UNL1        0.0316
     72 H          12.7386   16.2011   44.1028 H       1  UNL1        0.0316
     73 H          13.2010   16.4074   42.4296 H       1  UNL1        0.0316
     74 H          13.3781   11.7232   43.0778 H       1  UNL1        0.0464
     75 H          15.2056   15.4886   43.1798 H       1  UNL1        0.0464
     76 H          14.8414   12.2010   44.9430 H       1  UNL1        0.0281
     77 H          13.2806   12.6362   45.6409 H       1  UNL1        0.0281
     78 H          13.8634   14.9275   45.5976 H       1  UNL1        0.0281
     79 H          15.5069   14.3780   45.2372 H       1  UNL1        0.0281
     80 H          15.4570   12.1968   41.6020 H       1  UNL1        0.0391
     81 H          16.1308   12.6946   43.1736 H       1  UNL1        0.0391
     82 H          16.2146   13.7924   41.7793 H       1  UNL1        0.0391
@<TRIPOS>BOND
     1     1     2    2
     2     2     3    1
     3     2     4    1
     4     3     5    1
     5     4     6    1
     6     4     7    1
     7     4     8    1
     8     5     9    1
     9     5    10    1
    10     6    11   ar
    11     6    12   ar
    12     7    13   ar
    13     7    14   ar
    14     8    15    1
    15     9    16    1
    16    10    17    1
    17    11    18   ar
    18    11    19    1
    19    12    20   ar
    20    13    21   ar
    21    14    22   ar
    22    16    23    1
    23    16    24    1
    24    17    25    1
    25    18    26   ar
    26    19    27    1
    27    21    28   ar
    28    23    29    1
    29    27    30    2
    30    27    31    1
    31    31    32    1
    32    32    33    1
    33    32    34    1
    34    33    35    1
    35    34    36    1
    36    35    37    1
    37    35    38    1
    38    36    39    1
    39    37    40    1
    40    15    19    1
    41    17    23    1
    42    20    26   ar
    43    22    28   ar
    44    24    25    1
    45    36    37    1
    46    38    39    1
    47     5    41    1
    48     8    42    1
    49     8    43    1
    50     9    44    1
    51     9    45    1
    52    10    46    1
    53    10    47    1
    54    12    48    1
    55    13    49    1
    56    14    50    1
    57    15    51    1
    58    15    52    1
    59    16    53    1
    60    17    54    1
    61    18    55    1
    62    19    56    1
    63    20    57    1
    64    21    58    1
    65    22    59    1
    66    24    60    1
    67    24    61    1
    68    25    62    1
    69    25    63    1
    70    26    64    1
    71    28    65    1
    72    29    66    1
    73    29    67    1
    74    29    68    1
    75    32    69    1
    76    33    70    1
    77    33    71    1
    78    34    72    1
    79    34    73    1
    80    35    74    1
    81    36    75    1
    82    38    76    1
    83    38    77    1
    84    39    78    1
    85    39    79    1
    86    40    80    1
    87    40    81    1
    88    40    82    1
@<TRIPOS>SUBSTRUCTURE
     1 UNL1        1 TEMP              0 ****  ****    0 ROOT


##########                                Name:                 120
##########                DOCK_Rotatable_Bonds:                   7
##########                         Heavy_Atoms:                  40
##########                    Molecular_Weight:             542.718
##########                       Formal_Charge:         0.000700511
##########                     HBond_Acceptors:                   6
##########                        HBond_Donors:                   0
##########                    Continuous_Score:          -41.656509
##########               Continuous_vdw_energy:          -42.197155
##########                Continuous_es_energy:            0.540646
##########           Internal_energy_repulsive:           30.864399

@<TRIPOS>MOLECULE
120
 82 88 1 0 0
SMALL
GASTEIGER


@<TRIPOS>ATOM
      1 O           4.9650   13.6798   40.2347 O.2     1  UNL1       -0.2495
      2 C           4.8084   14.1820   41.3329 C.2     1  UNL1        0.3224
      3 O           3.6243   14.7866   41.6742 O.3     1  UNL1       -0.4604
      4 C           5.9062   14.2595   42.3571 C.3     1  UNL1        0.1177
      5 C           2.7767   15.3100   40.5971 C.3     1  UNL1        0.1060
      6 C           6.2926   12.8823   42.7294 C.ar    1  UNL1       -0.0223
      7 C           5.5366   14.8151   43.6830 C.ar    1  UNL1       -0.0263
      8 C           6.9807   15.1450   41.7124 C.3     1  UNL1       -0.0280
      9 C           3.0638   16.8001   40.2746 C.3     1  UNL1        0.0000
     10 C           1.2431   15.1628   40.8575 C.3     1  UNL1        0.0000
     11 C           7.6256   12.4547   42.6069 C.ar    1  UNL1       -0.0291
     12 C           5.3617   11.9484   43.2209 C.ar    1  UNL1       -0.0569
     13 C           5.9463   14.2733   44.9238 C.ar    1  UNL1       -0.0572
     14 C           4.9902   16.1136   43.7249 C.ar    1  UNL1       -0.0572
     15 C           8.1663   14.3799   41.0998 C.3     1  UNL1       -0.0344
     16 C           2.1537   17.2936   39.0981 C.3     1  UNL1        0.0138
     17 C           0.4060   15.9543   39.7850 C.3     1  UNL1        0.0138
     18 C           8.0265   11.1751   42.9808 C.ar    1  UNL1       -0.0575
     19 C           8.6079   13.3895   42.1572 C.3     1  UNL1        0.0817
     20 C           5.7606   10.6733   43.6121 C.ar    1  UNL1       -0.0614
     21 C           5.7611   14.9630   46.1214 C.ar    1  UNL1       -0.0615
     22 C           4.7990   16.8005   44.9219 C.ar    1  UNL1       -0.0615
     23 N           1.2858   16.1827   38.6144 N.3     1  UNL1       -0.2992
     24 C           1.1255   18.3048   39.6378 C.3     1  UNL1       -0.0358
     25 C           0.0315   17.3960   40.2358 C.3     1  UNL1       -0.0358
     26 C           7.0973   10.2813   43.4980 C.ar    1  UNL1       -0.0615
     27 C           9.5101   13.9726   43.1764 C.2     1  UNL1        0.3148
     28 C           5.1861   16.2267   46.1249 C.ar    1  UNL1       -0.0617
     29 C           0.5917   16.4262   37.3263 C.3     1  UNL1       -0.0122
     30 O           9.4048   15.1167   43.5764 O.2     1  UNL1       -0.2502
     31 O          10.4896   13.1327   43.5832 O.3     1  UNL1       -0.4608
     32 C          11.8818   13.2786   43.1910 C.3     1  UNL1        0.1059
     33 C          12.7922   12.1178   43.6769 C.3     1  UNL1        0.0000
     34 C          12.4820   14.6686   43.5617 C.3     1  UNL1        0.0000
     35 C          14.2832   12.3769   43.2753 C.3     1  UNL1        0.0138
     36 C          14.0341   14.6748   43.3839 C.3     1  UNL1        0.0138
     37 N          14.3805   13.5965   42.4264 N.3     1  UNL1       -0.2992
     38 C          15.0968   12.7759   44.5225 C.3     1  UNL1       -0.0358
     39 C          14.7776   14.2744   44.6877 C.3     1  UNL1       -0.0358
     40 C          15.6687   13.7844   41.7211 C.3     1  UNL1       -0.0122
     41 H           3.0079   14.7139   39.7064 H       1  UNL1        0.0735
     42 H           7.4101   15.7918   42.4846 H       1  UNL1        0.0283
     43 H           6.5672   15.8425   40.9789 H       1  UNL1        0.0283
     44 H           4.1086   16.9613   40.0099 H       1  UNL1        0.0316
     45 H           2.8834   17.3817   41.1811 H       1  UNL1        0.0316
     46 H           0.9854   15.4903   41.8680 H       1  UNL1        0.0316
     47 H           0.9822   14.1042   40.7925 H       1  UNL1        0.0316
     48 H           4.3134   12.2291   43.3329 H       1  UNL1        0.0621
     49 H           6.4469   13.3133   44.9940 H       1  UNL1        0.0621
     50 H           4.7373   16.6390   42.8081 H       1  UNL1        0.0621
     51 H           8.9261   15.1054   40.7860 H       1  UNL1        0.0277
     52 H           7.8134   13.8721   40.1946 H       1  UNL1        0.0277
     53 H           2.7663   17.7156   38.2950 H       1  UNL1        0.0464
     54 H          -0.4918   15.3857   39.5209 H       1  UNL1        0.0464
     55 H           9.0664   10.8804   42.8986 H       1  UNL1        0.0621
     56 H           9.3229   13.2408   41.3328 H       1  UNL1        0.0462
     57 H           5.0382    9.9723   44.0229 H       1  UNL1        0.0618
     58 H           6.0952   14.5208   47.0569 H       1  UNL1        0.0618
     59 H           4.3757   17.8025   44.9122 H       1  UNL1        0.0618
     60 H           0.7187   18.8977   38.8151 H       1  UNL1        0.0281
     61 H           1.5477   18.9976   40.3690 H       1  UNL1        0.0281
     62 H          -0.0144   17.4895   41.3228 H       1  UNL1        0.0281
     63 H          -0.9404   17.6828   39.8270 H       1  UNL1        0.0281
     64 H           7.4111    9.2941   43.8161 H       1  UNL1        0.0618
     65 H           5.0655   16.7737   47.0578 H       1  UNL1        0.0618
     66 H           1.3207   16.3882   36.5124 H       1  UNL1        0.0391
     67 H           0.0946   17.3982   37.3096 H       1  UNL1        0.0391
     68 H          -0.1564   15.6471   37.1567 H       1  UNL1        0.0391
     69 H          11.8729   13.2220   42.0991 H       1  UNL1        0.0735
     70 H          12.4441   11.1780   43.2457 H       1  UNL1        0.0316
     71 H          12.7152   12.0042   44.7598 H       1  UNL1        0.0316
     72 H          12.2118   14.9741   44.5738 H       1  UNL1        0.0316
     73 H          12.0475   15.4117   42.8894 H       1  UNL1        0.0316
     74 H          14.6997   11.4942   42.7820 H       1  UNL1        0.0464
     75 H          14.3590   15.6592   43.0357 H       1  UNL1        0.0464
     76 H          16.1638   12.6393   44.3291 H       1  UNL1        0.0281
     77 H          14.8432   12.1911   45.4099 H       1  UNL1        0.0281
     78 H          14.1711   14.4519   45.5791 H       1  UNL1        0.0281
     79 H          15.7062   14.8411   44.7888 H       1  UNL1        0.0281
     80 H          15.7890   12.9977   40.9717 H       1  UNL1        0.0391
     81 H          16.5135   13.7532   42.4125 H       1  UNL1        0.0391
     82 H          15.6664   14.7522   41.2122 H       1  UNL1        0.0391
@<TRIPOS>BOND
     1     1     2    2
     2     2     3    1
     3     2     4    1
     4     3     5    1
     5     4     6    1
     6     4     7    1
     7     4     8    1
     8     5     9    1
     9     5    10    1
    10     6    11   ar
    11     6    12   ar
    12     7    13   ar
    13     7    14   ar
    14     8    15    1
    15     9    16    1
    16    10    17    1
    17    11    18   ar
    18    11    19    1
    19    12    20   ar
    20    13    21   ar
    21    14    22   ar
    22    16    23    1
    23    16    24    1
    24    17    25    1
    25    18    26   ar
    26    19    27    1
    27    21    28   ar
    28    23    29    1
    29    27    30    2
    30    27    31    1
    31    31    32    1
    32    32    33    1
    33    32    34    1
    34    33    35    1
    35    34    36    1
    36    35    37    1
    37    35    38    1
    38    36    39    1
    39    37    40    1
    40    15    19    1
    41    17    23    1
    42    20    26   ar
    43    22    28   ar
    44    24    25    1
    45    36    37    1
    46    38    39    1
    47     5    41    1
    48     8    42    1
    49     8    43    1
    50     9    44    1
    51     9    45    1
    52    10    46    1
    53    10    47    1
    54    12    48    1
    55    13    49    1
    56    14    50    1
    57    15    51    1
    58    15    52    1
    59    16    53    1
    60    17    54    1
    61    18    55    1
    62    19    56    1
    63    20    57    1
    64    21    58    1
    65    22    59    1
    66    24    60    1
    67    24    61    1
    68    25    62    1
    69    25    63    1
    70    26    64    1
    71    28    65    1
    72    29    66    1
    73    29    67    1
    74    29    68    1
    75    32    69    1
    76    33    70    1
    77    33    71    1
    78    34    72    1
    79    34    73    1
    80    35    74    1
    81    36    75    1
    82    38    76    1
    83    38    77    1
    84    39    78    1
    85    39    79    1
    86    40    80    1
    87    40    81    1
    88    40    82    1
@<TRIPOS>SUBSTRUCTURE
     1 UNL1        1 TEMP              0 ****  ****    0 ROOT


##########                                Name:                 121
##########                DOCK_Rotatable_Bonds:                  13
##########                         Heavy_Atoms:                  30
##########                    Molecular_Weight:             420.416
##########                       Formal_Charge:         0.000199631
##########                     HBond_Acceptors:                   9
##########                        HBond_Donors:                   6
##########                    Continuous_Score:          -43.309853
##########               Continuous_vdw_energy:          -39.822346
##########                Continuous_es_energy:           -3.487506
##########           Internal_energy_repulsive:            8.012604

@<TRIPOS>MOLECULE
121
 54 56 1 0 0
SMALL
GASTEIGER


@<TRIPOS>ATOM
      1 O          13.3041   12.0787   42.6038 O.3     1  UNL1       -0.3313
      2 C          14.4304   12.5831   43.3680 C.3     1  UNL1        0.2308
      3 C          12.1419   12.9486   42.5309 C.3     1  UNL1        0.1140
      4 O          14.9596   13.8131   42.8091 O.3     1  UNL1       -0.4607
      5 C          13.9768   12.8426   44.8262 C.3     1  UNL1        0.1454
      6 C          11.5883   13.2018   43.9570 C.3     1  UNL1        0.1120
      7 C          11.0997   12.2741   41.6107 C.3     1  UNL1        0.0731
      8 C          15.8725   13.8633   41.7722 C.ar    1  UNL1        0.1280
      9 O          15.0451   13.4581   45.5607 O.3     1  UNL1       -0.3829
     10 C          12.6938   13.7162   44.9056 C.3     1  UNL1        0.1152
     11 O          10.5619   14.1986   43.9099 O.3     1  UNL1       -0.3865
     12 O          11.7405   11.5091   40.5822 O.3     1  UNL1       -0.3924
     13 C          15.9992   12.8441   40.8206 C.ar    1  UNL1        0.0217
     14 C          16.6591   15.0092   41.6662 C.ar    1  UNL1       -0.0124
     15 O          12.9681   15.0918   44.6057 O.3     1  UNL1       -0.3864
     16 C          16.9116   12.9837   39.7719 C.ar    1  UNL1        0.1209
     17 C          17.5594   15.1449   40.6123 C.ar    1  UNL1       -0.0181
     18 O          17.0438   12.0221   38.8191 O.3     1  UNL1       -0.5066
     19 C          17.6861   14.1315   39.6684 C.ar    1  UNL1       -0.0128
     20 C          18.3130   16.3877   40.4151 C.2     1  UNL1       -0.0538
     21 C          19.4909   16.6801   40.9747 C.2     1  UNL1       -0.0539
     22 C          20.2663   15.8344   41.8891 C.ar    1  UNL1       -0.0213
     23 C          20.1401   16.0289   43.2611 C.ar    1  UNL1       -0.0094
     24 C          21.1296   14.8597   41.4003 C.ar    1  UNL1       -0.0509
     25 C          20.8746   15.2587   44.1601 C.ar    1  UNL1        0.1590
     26 C          21.8669   14.0842   42.2892 C.ar    1  UNL1       -0.0158
     27 O          20.6961   15.5170   45.4910 O.3     1  UNL1       -0.5033
     28 C          21.7535   14.2710   43.6685 C.ar    1  UNL1        0.1613
     29 O          22.5464   13.4408   44.4499 O.3     1  UNL1       -0.4915
     30 C          23.3271   12.3246   43.9676 C.3     1  UNL1        0.0790
     31 H          15.2284   11.8252   43.3400 H       1  UNL1        0.1084
     32 H          12.4454   13.9005   42.0846 H       1  UNL1        0.0647
     33 H          13.7538   11.8764   45.2872 H       1  UNL1        0.0683
     34 H          11.1737   12.2717   44.3559 H       1  UNL1        0.0647
     35 H          10.4773   13.0448   41.1481 H       1  UNL1        0.0584
     36 H          10.4547   11.6189   42.2029 H       1  UNL1        0.0584
     37 H          14.7492   13.5901   46.4847 H       1  UNL1        0.2102
     38 H          12.3150   13.6669   45.9302 H       1  UNL1        0.0648
     39 H          11.0071   15.0501   44.1157 H       1  UNL1        0.2100
     40 H          12.3987   12.0751   40.1392 H       1  UNL1        0.2095
     41 H          15.3851   11.9501   40.8849 H       1  UNL1        0.0691
     42 H          16.5457   15.8117   42.3920 H       1  UNL1        0.0660
     43 H          13.3791   15.1089   43.7305 H       1  UNL1        0.2100
     44 H          16.5633   11.2297   39.0951 H       1  UNL1        0.2921
     45 H          18.3765   14.2458   38.8348 H       1  UNL1        0.0660
     46 H          17.8138   17.1519   39.8192 H       1  UNL1        0.0624
     47 H          19.9765   17.6147   40.6937 H       1  UNL1        0.0624
     48 H          19.4632   16.7957   43.6314 H       1  UNL1        0.0661
     49 H          21.2328   14.7053   40.3287 H       1  UNL1        0.0625
     50 H          22.5429   13.3251   41.9032 H       1  UNL1        0.0655
     51 H          20.2468   16.3760   45.5995 H       1  UNL1        0.2923
     52 H          23.8362   11.8590   44.8148 H       1  UNL1        0.0660
     53 H          24.0685   12.6834   43.2487 H       1  UNL1        0.0660
     54 H          22.6649   11.5946   43.4943 H       1  UNL1        0.0660
@<TRIPOS>BOND
     1     1     2    1
     2     1     3    1
     3     2     4    1
     4     2     5    1
     5     3     6    1
     6     3     7    1
     7     4     8    1
     8     5     9    1
     9     5    10    1
    10     6    11    1
    11     7    12    1
    12     8    13   ar
    13     8    14   ar
    14    10    15    1
    15    13    16   ar
    16    14    17   ar
    17    16    18    1
    18    16    19   ar
    19    17    20    1
    20    20    21    2
    21    21    22    1
    22    22    23   ar
    23    22    24   ar
    24    23    25   ar
    25    24    26   ar
    26    25    27    1
    27    25    28   ar
    28    28    29    1
    29    29    30    1
    30     6    10    1
    31    17    19   ar
    32    26    28   ar
    33     2    31    1
    34     3    32    1
    35     5    33    1
    36     6    34    1
    37     7    35    1
    38     7    36    1
    39     9    37    1
    40    10    38    1
    41    11    39    1
    42    12    40    1
    43    13    41    1
    44    14    42    1
    45    15    43    1
    46    18    44    1
    47    19    45    1
    48    20    46    1
    49    21    47    1
    50    23    48    1
    51    24    49    1
    52    26    50    1
    53    27    51    1
    54    30    52    1
    55    30    53    1
    56    30    54    1
@<TRIPOS>SUBSTRUCTURE
     1 UNL1        1 TEMP              0 ****  ****    0 ROOT


##########                                Name:                 121
##########                DOCK_Rotatable_Bonds:                  13
##########                         Heavy_Atoms:                  30
##########                    Molecular_Weight:             420.416
##########                       Formal_Charge:         0.000199631
##########                     HBond_Acceptors:                   9
##########                        HBond_Donors:                   6
##########                    Continuous_Score:          -42.357216
##########               Continuous_vdw_energy:          -39.809544
##########                Continuous_es_energy:           -2.547674
##########           Internal_energy_repulsive:           11.956808

@<TRIPOS>MOLECULE
121
 54 56 1 0 0
SMALL
GASTEIGER


@<TRIPOS>ATOM
      1 O          12.8522   12.3405   42.2685 O.3     1  UNL1       -0.3313
      2 C          14.1188   12.5471   42.9471 C.3     1  UNL1        0.2308
      3 C          11.8054   13.3044   42.5648 C.3     1  UNL1        0.1140
      4 O          14.7201   13.8212   42.6003 O.3     1  UNL1       -0.4607
      5 C          13.8869   12.4955   44.4778 C.3     1  UNL1        0.1454
      6 C          11.4702   13.2633   44.0783 C.3     1  UNL1        0.1120
      7 C          10.5813   12.9624   41.6860 C.3     1  UNL1        0.0731
      8 C          15.7616   13.9680   41.7033 C.ar    1  UNL1        0.1280
      9 O          15.1062   12.8218   45.1610 O.3     1  UNL1       -0.3829
     10 C          12.7407   13.4379   44.9399 C.3     1  UNL1        0.1152
     11 O          10.5758   14.3316   44.4069 O.3     1  UNL1       -0.3865
     12 O           9.5326   12.3791   42.4693 O.3     1  UNL1       -0.3924
     13 C          16.0696   13.0080   40.7318 C.ar    1  UNL1        0.0217
     14 C          16.4948   15.1523   41.7612 C.ar    1  UNL1       -0.0124
     15 O          13.1414   14.8149   44.9131 O.3     1  UNL1       -0.3864
     16 C          17.1076   13.2444   39.8272 C.ar    1  UNL1        0.1209
     17 C          17.5219   15.3846   40.8497 C.ar    1  UNL1       -0.0181
     18 O          17.4182   12.3422   38.8580 O.3     1  UNL1       -0.5066
     19 C          17.8283   14.4300   39.8860 C.ar    1  UNL1       -0.0128
     20 C          18.2295   16.6688   40.8171 C.2     1  UNL1       -0.0538
     21 C          19.4034   16.9251   41.4025 C.2     1  UNL1       -0.0539
     22 C          20.2186   15.9919   42.1882 C.ar    1  UNL1       -0.0213
     23 C          21.1460   15.1875   41.5334 C.ar    1  UNL1       -0.0094
     24 C          20.0628   15.8948   43.5668 C.ar    1  UNL1       -0.0509
     25 C          21.9244   14.2755   42.2429 C.ar    1  UNL1        0.1590
     26 C          20.8357   14.9883   44.2851 C.ar    1  UNL1       -0.0158
     27 O          22.8079   13.5195   41.5232 O.3     1  UNL1       -0.5033
     28 C          21.7674   14.1717   43.6408 C.ar    1  UNL1        0.1613
     29 O          22.4713   13.3042   44.4656 O.3     1  UNL1       -0.4915
     30 C          23.5085   12.3929   44.0393 C.3     1  UNL1        0.0790
     31 H          14.8083   11.7484   42.6330 H       1  UNL1        0.1084
     32 H          12.1647   14.3033   42.2991 H       1  UNL1        0.0647
     33 H          13.6071   11.4721   44.7423 H       1  UNL1        0.0683
     34 H          10.9984   12.3067   44.3198 H       1  UNL1        0.0647
     35 H          10.8836   12.2545   40.9094 H       1  UNL1        0.0584
     36 H          10.2110   13.8698   41.2007 H       1  UNL1        0.0584
     37 H          15.3034   12.1067   45.8000 H       1  UNL1        0.2102
     38 H          12.4903   13.1830   45.9733 H       1  UNL1        0.0648
     39 H          10.0017   13.9874   45.1263 H       1  UNL1        0.2100
     40 H           9.9210   11.7009   43.0516 H       1  UNL1        0.2095
     41 H          15.4998   12.0850   40.6684 H       1  UNL1        0.0691
     42 H          16.2422   15.9088   42.5010 H       1  UNL1        0.0660
     43 H          12.8261   15.2122   45.7364 H       1  UNL1        0.2100
     44 H          16.6053   12.0367   38.4328 H       1  UNL1        0.2921
     45 H          18.6189   14.6197   39.1624 H       1  UNL1        0.0660
     46 H          17.6971   17.4882   40.3340 H       1  UNL1        0.0624
     47 H          19.8529   17.9059   41.2472 H       1  UNL1        0.0624
     48 H          21.2574   15.2711   40.4545 H       1  UNL1        0.0661
     49 H          19.3378   16.5203   44.0827 H       1  UNL1        0.0625
     50 H          20.7090   14.9133   45.3624 H       1  UNL1        0.0655
     51 H          23.3116   12.9427   42.1274 H       1  UNL1        0.2923
     52 H          23.8679   11.8370   44.9084 H       1  UNL1        0.0660
     53 H          24.3342   12.9610   43.6025 H       1  UNL1        0.0660
     54 H          23.1000   11.6948   43.3035 H       1  UNL1        0.0660
@<TRIPOS>BOND
     1     1     2    1
     2     1     3    1
     3     2     4    1
     4     2     5    1
     5     3     6    1
     6     3     7    1
     7     4     8    1
     8     5     9    1
     9     5    10    1
    10     6    11    1
    11     7    12    1
    12     8    13   ar
    13     8    14   ar
    14    10    15    1
    15    13    16   ar
    16    14    17   ar
    17    16    18    1
    18    16    19   ar
    19    17    20    1
    20    20    21    2
    21    21    22    1
    22    22    23   ar
    23    22    24   ar
    24    23    25   ar
    25    24    26   ar
    26    25    27    1
    27    25    28   ar
    28    28    29    1
    29    29    30    1
    30     6    10    1
    31    17    19   ar
    32    26    28   ar
    33     2    31    1
    34     3    32    1
    35     5    33    1
    36     6    34    1
    37     7    35    1
    38     7    36    1
    39     9    37    1
    40    10    38    1
    41    11    39    1
    42    12    40    1
    43    13    41    1
    44    14    42    1
    45    15    43    1
    46    18    44    1
    47    19    45    1
    48    20    46    1
    49    21    47    1
    50    23    48    1
    51    24    49    1
    52    26    50    1
    53    27    51    1
    54    30    52    1
    55    30    53    1
    56    30    54    1
@<TRIPOS>SUBSTRUCTURE
     1 UNL1        1 TEMP              0 ****  ****    0 ROOT


##########                                Name:                 121
##########                DOCK_Rotatable_Bonds:                  13
##########                         Heavy_Atoms:                  30
##########                    Molecular_Weight:             420.416
##########                       Formal_Charge:         0.000199631
##########                     HBond_Acceptors:                   9
##########                        HBond_Donors:                   6
##########                    Continuous_Score:          -39.677845
##########               Continuous_vdw_energy:          -37.359856
##########                Continuous_es_energy:           -2.317989
##########           Internal_energy_repulsive:            4.259936

@<TRIPOS>MOLECULE
121
 54 56 1 0 0
SMALL
GASTEIGER


@<TRIPOS>ATOM
      1 O           4.3657   15.2422   42.6807 O.3     1  UNL1       -0.3313
      2 C           5.3124   15.3038   41.5820 C.3     1  UNL1        0.2308
      3 C           3.0907   14.6082   42.3891 C.3     1  UNL1        0.1140
      4 O           5.6875   13.9831   41.1126 O.3     1  UNL1       -0.4607
      5 C           4.6786   16.0968   40.4120 C.3     1  UNL1        0.1454
      6 C           2.3629   15.3904   41.2653 C.3     1  UNL1        0.1120
      7 C           2.2699   14.5664   43.6977 C.3     1  UNL1        0.0731
      8 C           6.4391   13.0844   41.8464 C.ar    1  UNL1        0.1280
      9 O           5.5532   16.0589   39.2747 O.3     1  UNL1       -0.3829
     10 C           3.2691   15.5674   40.0266 C.3     1  UNL1        0.1152
     11 O           1.1979   14.6706   40.8484 O.3     1  UNL1       -0.3865
     12 O           3.0666   14.0900   44.7894 O.3     1  UNL1       -0.3924
     13 C           5.9045   11.9083   42.3862 C.ar    1  UNL1        0.0217
     14 C           7.7959   13.3628   42.0046 C.ar    1  UNL1       -0.0124
     15 O           3.3443   14.3229   39.3175 O.3     1  UNL1       -0.3864
     16 C           6.7344   11.0224   43.0776 C.ar    1  UNL1        0.1209
     17 C           8.6184   12.4697   42.6868 C.ar    1  UNL1       -0.0181
     18 O           6.2513    9.8612   43.5954 O.3     1  UNL1       -0.5066
     19 C           8.0865   11.3026   43.2242 C.ar    1  UNL1       -0.0128
     20 C          10.0673   12.6837   42.7662 C.2     1  UNL1       -0.0538
     21 C          10.7477   12.9976   43.8730 C.2     1  UNL1       -0.0539
     22 C          12.1939   13.2179   43.9857 C.ar    1  UNL1       -0.0213
     23 C          13.0286   12.1274   44.2098 C.ar    1  UNL1       -0.0094
     24 C          12.7306   14.4970   43.8867 C.ar    1  UNL1       -0.0509
     25 C          14.4047   12.2993   44.3419 C.ar    1  UNL1        0.1590
     26 C          14.1035   14.6798   44.0157 C.ar    1  UNL1       -0.0158
     27 O          15.1530   11.1768   44.5658 O.3     1  UNL1       -0.5033
     28 C          14.9529   13.5953   44.2450 C.ar    1  UNL1        0.1613
     29 O          16.3008   13.9080   44.3629 O.3     1  UNL1       -0.4915
     30 C          16.9452   14.4208   45.5502 C.3     1  UNL1        0.0790
     31 H           6.2220   15.8080   41.9433 H       1  UNL1        0.1084
     32 H           3.2783   13.5831   42.0555 H       1  UNL1        0.0647
     33 H           4.5708   17.1377   40.7292 H       1  UNL1        0.0683
     34 H           2.0675   16.3743   41.6405 H       1  UNL1        0.0647
     35 H           1.4132   13.9006   43.5629 H       1  UNL1        0.0584
     36 H           1.8959   15.5674   43.9301 H       1  UNL1        0.0584
     37 H           5.6091   15.1341   38.9583 H       1  UNL1        0.2102
     38 H           2.8024   16.3016   39.3641 H       1  UNL1        0.0648
     39 H           0.6127   14.6302   41.6367 H       1  UNL1        0.2100
     40 H           2.4972   14.0070   45.5760 H       1  UNL1        0.2095
     41 H           4.8510   11.6735   42.2617 H       1  UNL1        0.0691
     42 H           8.2171   14.2651   41.5665 H       1  UNL1        0.0660
     43 H           3.9105   14.4750   38.5485 H       1  UNL1        0.2100
     44 H           5.2874    9.9128   43.6523 H       1  UNL1        0.2921
     45 H           8.7332   10.5962   43.7414 H       1  UNL1        0.0660
     46 H          10.6007   12.6538   41.8162 H       1  UNL1        0.0624
     47 H          10.1858   13.1710   44.7908 H       1  UNL1        0.0624
     48 H          12.5968   11.1319   44.2875 H       1  UNL1        0.0661
     49 H          12.0818   15.3526   43.7132 H       1  UNL1        0.0625
     50 H          14.5190   15.6817   43.9405 H       1  UNL1        0.0655
     51 H          15.2489   11.0346   45.5260 H       1  UNL1        0.2923
     52 H          18.0050   14.5776   45.3357 H       1  UNL1        0.0660
     53 H          16.8405   13.6962   46.3622 H       1  UNL1        0.0660
     54 H          16.4856   15.3721   45.8318 H       1  UNL1        0.0660
@<TRIPOS>BOND
     1     1     2    1
     2     1     3    1
     3     2     4    1
     4     2     5    1
     5     3     6    1
     6     3     7    1
     7     4     8    1
     8     5     9    1
     9     5    10    1
    10     6    11    1
    11     7    12    1
    12     8    13   ar
    13     8    14   ar
    14    10    15    1
    15    13    16   ar
    16    14    17   ar
    17    16    18    1
    18    16    19   ar
    19    17    20    1
    20    20    21    2
    21    21    22    1
    22    22    23   ar
    23    22    24   ar
    24    23    25   ar
    25    24    26   ar
    26    25    27    1
    27    25    28   ar
    28    28    29    1
    29    29    30    1
    30     6    10    1
    31    17    19   ar
    32    26    28   ar
    33     2    31    1
    34     3    32    1
    35     5    33    1
    36     6    34    1
    37     7    35    1
    38     7    36    1
    39     9    37    1
    40    10    38    1
    41    11    39    1
    42    12    40    1
    43    13    41    1
    44    14    42    1
    45    15    43    1
    46    18    44    1
    47    19    45    1
    48    20    46    1
    49    21    47    1
    50    23    48    1
    51    24    49    1
    52    26    50    1
    53    27    51    1
    54    30    52    1
    55    30    53    1
    56    30    54    1
@<TRIPOS>SUBSTRUCTURE
     1 UNL1        1 TEMP              0 ****  ****    0 ROOT


##########                                Name:                 122
##########                DOCK_Rotatable_Bonds:                  21
##########                         Heavy_Atoms:                  62
##########                    Molecular_Weight:             862.751
##########                       Formal_Charge:         0.000199914
##########                     HBond_Acceptors:                  20
##########                        HBond_Donors:                  12
##########                    Continuous_Score:          -57.398014
##########               Continuous_vdw_energy:          -52.634060
##########                Continuous_es_energy:           -4.763954
##########           Internal_energy_repulsive:           46.509598

@<TRIPOS>MOLECULE
122
 100 107 1 0 0
SMALL
GASTEIGER


@<TRIPOS>ATOM
      1 O          13.8224   16.8807   41.7414 O.2     1  UNL1       -0.2864
      2 C          12.8914   16.1100   41.8803 C.2     1  UNL1        0.2007
      3 C          12.9800   14.9090   42.7921 C.ar    1  UNL1        0.0679
      4 C          11.6424   16.2707   41.0503 C.ar    1  UNL1        0.0675
      5 C          14.1882   14.5556   43.4321 C.ar    1  UNL1        0.1351
      6 C          11.8527   14.0832   42.9408 C.ar    1  UNL1       -0.0247
      7 C          11.5485   17.2552   40.0456 C.ar    1  UNL1        0.1287
      8 C          10.5423   15.4313   41.2901 C.ar    1  UNL1       -0.0240
      9 O          15.3198   15.3264   43.2432 O.3     1  UNL1       -0.4601
     10 C          14.2578   13.4127   44.2276 C.ar    1  UNL1       -0.0191
     11 C          12.0157   12.8501   43.5976 C.ar    1  UNL1       -0.0571
     12 C          10.5504   14.5336   42.4396 C.3     1  UNL1        0.0217
     13 O          12.5783   18.1159   39.7715 O.3     1  UNL1       -0.5060
     14 C          10.3753   17.4075   39.3046 C.ar    1  UNL1       -0.0055
     15 C           9.3762   15.5900   40.5228 C.ar    1  UNL1       -0.0431
     16 C          16.6729   14.8695   43.0094 C.3     1  UNL1        0.2308
     17 C          13.1887   12.5357   44.2673 C.ar    1  UNL1       -0.0580
     18 C           9.6082   14.8904   43.5202 C.3     1  UNL1        0.0217
     19 C           9.2672   16.5938   39.5450 C.ar    1  UNL1        0.0626
     20 O          17.1549   15.3618   41.7439 O.3     1  UNL1       -0.3313
     21 C          17.6971   15.2585   44.1102 C.3     1  UNL1        0.1454
     22 C           9.4383   16.3343   43.6900 C.ar    1  UNL1       -0.0240
     23 C           8.4214   14.0151   43.6030 C.ar    1  UNL1       -0.0247
     24 C           7.9376   16.8290   38.8607 C.2     1  UNL1        0.3369
     25 C          18.3540   14.6844   41.2989 C.3     1  UNL1        0.1140
     26 O          17.2226   14.8681   45.4068 O.3     1  UNL1       -0.3829
     27 C          19.0528   14.5911   43.7577 C.3     1  UNL1        0.1152
     28 C           8.1711   16.9063   43.5152 C.ar    1  UNL1        0.0675
     29 C          10.5367   17.1864   43.9123 C.ar    1  UNL1       -0.0431
     30 C           7.1208   14.5490   43.4692 C.ar    1  UNL1        0.0679
     31 C           8.5168   12.6370   43.8523 C.ar    1  UNL1       -0.0571
     32 O           7.0537   15.9977   38.8985 O.2     1  UNL1       -0.2451
     33 O           7.7034   17.9899   38.2820 O.3     1  UNL1       -0.4771
     34 C          19.4975   14.9672   42.3141 C.3     1  UNL1        0.1120
     35 C          18.6683   15.1525   39.8616 C.3     1  UNL1        0.0731
     36 O          20.0688   14.9936   44.6833 O.3     1  UNL1       -0.3864
     37 C           6.9466   16.0366   43.4461 C.2     1  UNL1        0.2007
     38 C           8.0485   18.2979   43.4011 C.ar    1  UNL1        0.1287
     39 C          10.3987   18.5877   43.8942 C.ar    1  UNL1        0.0626
     40 C           5.9951   13.7004   43.4133 C.ar    1  UNL1        0.1351
     41 C           7.4102   11.8005   43.7750 C.ar    1  UNL1       -0.0580
     42 O          19.8803   16.3498   42.2662 O.3     1  UNL1       -0.3865
     43 O          18.0547   16.4242   39.6184 O.3     1  UNL1       -0.3924
     44 O           5.8333   16.5254   43.4954 O.2     1  UNL1       -0.2864
     45 O           6.8781   18.8207   42.9270 O.3     1  UNL1       -0.5060
     46 C           9.1433   19.1348   43.6192 C.ar    1  UNL1       -0.0055
     47 C          11.6183   19.4712   44.0289 C.2     1  UNL1        0.3369
     48 O           4.7176   14.2428   43.2813 O.3     1  UNL1       -0.4601
     49 C           6.1513   12.3275   43.5215 C.ar    1  UNL1       -0.0191
     50 O          11.5866   20.5189   44.6406 O.2     1  UNL1       -0.2451
     51 O          12.7498   19.0575   43.4989 O.3     1  UNL1       -0.4771
     52 C           3.5253   13.5982   42.7778 C.3     1  UNL1        0.2308
     53 O           3.2697   13.9804   41.4016 O.3     1  UNL1       -0.3313
     54 C           2.3137   14.0214   43.6552 C.3     1  UNL1        0.1454
     55 C           3.0800   15.4044   41.1804 C.3     1  UNL1        0.1140
     56 O           2.5818   13.7348   45.0390 O.3     1  UNL1       -0.3829
     57 C           1.9633   15.5264   43.4818 C.3     1  UNL1        0.1152
     58 C           1.8556   15.9176   41.9910 C.3     1  UNL1        0.1120
     59 C           2.9606   15.6539   39.6557 C.3     1  UNL1        0.0731
     60 O           0.6817   15.7965   44.0666 O.3     1  UNL1       -0.3864
     61 O           0.6145   15.4118   41.4838 O.3     1  UNL1       -0.3865
     62 O           1.9681   14.8067   39.0641 O.3     1  UNL1       -0.3924
     63 H          15.1629   13.1664   44.7745 H       1  UNL1        0.0654
     64 H          11.2252   12.1138   43.6183 H       1  UNL1        0.0621
     65 H          10.5926   13.6024   41.8517 H       1  UNL1        0.0407
     66 H          12.2272   18.9162   39.2975 H       1  UNL1        0.2922
     67 H          10.3195   18.2059   38.5687 H       1  UNL1        0.0662
     68 H           8.5112   14.9681   40.7441 H       1  UNL1        0.0629
     69 H          16.6001   13.7732   42.9328 H       1  UNL1        0.1084
     70 H          13.2697   11.6031   44.8200 H       1  UNL1        0.0619
     71 H           9.7833   14.5813   44.5626 H       1  UNL1        0.0407
     72 H          17.8479   16.3387   44.1152 H       1  UNL1        0.0683
     73 H          18.1558   13.6082   41.2760 H       1  UNL1        0.0647
     74 H          16.2568   14.7555   45.3919 H       1  UNL1        0.2102
     75 H          18.9343   13.5055   43.8179 H       1  UNL1        0.0648
     76 H          11.5276   16.7564   44.0399 H       1  UNL1        0.0629
     77 H           9.4543   12.1703   44.1136 H       1  UNL1        0.0621
     78 H           6.9617   17.9753   37.6511 H       1  UNL1        0.2954
     79 H          20.3666   14.3587   42.0471 H       1  UNL1        0.0647
     80 H          18.2883   14.4210   39.1439 H       1  UNL1        0.0584
     81 H          19.7490   15.2504   39.7260 H       1  UNL1        0.0584
     82 H          20.1390   15.9697   44.6441 H       1  UNL1        0.2100
     83 H           7.5286   10.7297   43.9162 H       1  UNL1        0.0619
     84 H          19.7210   16.6865   41.3647 H       1  UNL1        0.2100
     85 H          18.3053   17.0496   40.3247 H       1  UNL1        0.2095
     86 H           6.8159   19.7681   42.9214 H       1  UNL1        0.2922
     87 H           9.0241   20.2075   43.4961 H       1  UNL1        0.0662
     88 H           5.2990   11.6569   43.4641 H       1  UNL1        0.0654
     89 H          12.6404   18.2252   43.0015 H       1  UNL1        0.2954
     90 H           3.6677   12.5070   42.8242 H       1  UNL1        0.1084
     91 H           1.4517   13.4270   43.3408 H       1  UNL1        0.0683
     92 H           3.9693   15.9293   41.5365 H       1  UNL1        0.0647
     93 H           2.7622   12.7779   45.1525 H       1  UNL1        0.2102
     94 H           2.7336   16.1348   43.9656 H       1  UNL1        0.0648
     95 H           1.8301   17.0095   41.9218 H       1  UNL1        0.0647
     96 H           3.9265   15.4436   39.1882 H       1  UNL1        0.0584
     97 H           2.7104   16.7029   39.4688 H       1  UNL1        0.0584
     98 H           0.0395   15.2487   43.5498 H       1  UNL1        0.2100
     99 H           0.6401   14.4466   41.5624 H       1  UNL1        0.2100
    100 H           1.9776   14.9496   38.0983 H       1  UNL1        0.2095
@<TRIPOS>BOND
     1     1     2    2
     2     2     3    1
     3     2     4    1
     4     3     5   ar
     5     3     6   ar
     6     4     7   ar
     7     4     8   ar
     8     5     9    1
     9     5    10   ar
    10     6    11   ar
    11     6    12    1
    12     7    13    1
    13     7    14   ar
    14     8    15   ar
    15     9    16    1
    16    10    17   ar
    17    12    18    1
    18    14    19   ar
    19    16    20    1
    20    16    21    1
    21    18    22    1
    22    18    23    1
    23    19    24    1
    24    20    25    1
    25    21    26    1
    26    21    27    1
    27    22    28   ar
    28    22    29   ar
    29    23    30   ar
    30    23    31   ar
    31    24    32    2
    32    24    33    1
    33    25    34    1
    34    25    35    1
    35    27    36    1
    36    28    37    1
    37    28    38   ar
    38    29    39   ar
    39    30    40   ar
    40    31    41   ar
    41    34    42    1
    42    35    43    1
    43    37    44    2
    44    38    45    1
    45    38    46   ar
    46    39    47    1
    47    40    48    1
    48    40    49   ar
    49    47    50    2
    50    47    51    1
    51    48    52    1
    52    52    53    1
    53    52    54    1
    54    53    55    1
    55    54    56    1
    56    54    57    1
    57    55    58    1
    58    55    59    1
    59    57    60    1
    60    58    61    1
    61    59    62    1
    62     8    12    1
    63    11    17   ar
    64    15    19   ar
    65    27    34    1
    66    30    37    1
    67    39    46   ar
    68    41    49   ar
    69    57    58    1
    70    10    63    1
    71    11    64    1
    72    12    65    1
    73    13    66    1
    74    14    67    1
    75    15    68    1
    76    16    69    1
    77    17    70    1
    78    18    71    1
    79    21    72    1
    80    25    73    1
    81    26    74    1
    82    27    75    1
    83    29    76    1
    84    31    77    1
    85    33    78    1
    86    34    79    1
    87    35    80    1
    88    35    81    1
    89    36    82    1
    90    41    83    1
    91    42    84    1
    92    43    85    1
    93    45    86    1
    94    46    87    1
    95    49    88    1
    96    51    89    1
    97    52    90    1
    98    54    91    1
    99    55    92    1
   100    56    93    1
   101    57    94    1
   102    58    95    1
   103    59    96    1
   104    59    97    1
   105    60    98    1
   106    61    99    1
   107    62   100    1
@<TRIPOS>SUBSTRUCTURE
     1 UNL1        1 TEMP              0 ****  ****    0 ROOT


##########                                Name:                 122
##########                DOCK_Rotatable_Bonds:                  21
##########                         Heavy_Atoms:                  62
##########                    Molecular_Weight:             862.751
##########                       Formal_Charge:         0.000199914
##########                     HBond_Acceptors:                  20
##########                        HBond_Donors:                  12
##########                    Continuous_Score:          -55.415211
##########               Continuous_vdw_energy:          -51.453007
##########                Continuous_es_energy:           -3.962204
##########           Internal_energy_repulsive:           44.772041

@<TRIPOS>MOLECULE
122
 100 107 1 0 0
SMALL
GASTEIGER


@<TRIPOS>ATOM
      1 O          13.8081   16.8486   41.7419 O.2     1  UNL1       -0.2864
      2 C          12.8691   16.0865   41.8724 C.2     1  UNL1        0.2007
      3 C          12.9396   14.8834   42.7830 C.ar    1  UNL1        0.0679
      4 C          11.6281   16.2598   41.0330 C.ar    1  UNL1        0.0675
      5 C          14.1396   14.5179   43.4319 C.ar    1  UNL1        0.1351
      6 C          11.8037   14.0677   42.9218 C.ar    1  UNL1       -0.0247
      7 C          11.5510   17.2465   40.0291 C.ar    1  UNL1        0.1287
      8 C          10.5186   15.4302   41.2630 C.ar    1  UNL1       -0.0240
      9 O          15.2795   15.2785   43.2529 O.3     1  UNL1       -0.4601
     10 C          14.1924   13.3733   44.2262 C.ar    1  UNL1       -0.0191
     11 C          11.9502   12.8323   43.5781 C.ar    1  UNL1       -0.0571
     12 C          10.5095   14.5309   42.4113 C.3     1  UNL1        0.0217
     13 O          12.5910   18.0981   39.7643 O.3     1  UNL1       -0.5060
     14 C          10.3852   17.4107   39.2792 C.ar    1  UNL1       -0.0055
     15 C           9.3600   15.6007   40.4871 C.ar    1  UNL1       -0.0431
     16 C          16.6362   14.8099   43.0679 C.3     1  UNL1        0.2308
     17 C          13.1151   12.5061   44.2562 C.ar    1  UNL1       -0.0580
     18 C           9.5623   14.8948   43.4850 C.3     1  UNL1        0.0217
     19 C           9.2678   16.6069   39.5097 C.ar    1  UNL1        0.0626
     20 O          17.1488   15.2521   41.7959 O.3     1  UNL1       -0.3313
     21 C          17.6362   15.2381   44.1764 C.3     1  UNL1        0.1454
     22 C           9.4138   16.3399   43.6640 C.ar    1  UNL1       -0.0240
     23 C           8.3608   14.0380   43.5494 C.ar    1  UNL1       -0.0247
     24 C           7.9457   16.8552   38.8157 C.2     1  UNL1        0.3369
     25 C          18.3554   14.5553   41.4049 C.3     1  UNL1        0.1140
     26 O          17.1308   14.8988   45.4756 O.3     1  UNL1       -0.3829
     27 C          18.9974   14.5546   43.8809 C.3     1  UNL1        0.1152
     28 C           8.1577   16.9335   43.4809 C.ar    1  UNL1        0.0675
     29 C          10.5234   17.1726   43.9036 C.ar    1  UNL1       -0.0431
     30 C           7.0704   14.5937   43.4067 C.ar    1  UNL1        0.0679
     31 C           8.4317   12.6568   43.7893 C.ar    1  UNL1       -0.0571
     32 O           7.0913   15.9945   38.7607 O.2     1  UNL1       -0.2451
     33 O           7.6828   18.0530   38.3325 O.3     1  UNL1       -0.4771
     34 C          19.4763   14.8740   42.4345 C.3     1  UNL1        0.1120
     35 C          18.7041   14.9673   39.9583 C.3     1  UNL1        0.0731
     36 O          19.9933   14.9897   44.8134 O.3     1  UNL1       -0.3864
     37 C           6.9203   16.0840   43.3931 C.2     1  UNL1        0.2007
     38 C           8.0586   18.3275   43.3762 C.ar    1  UNL1        0.1287
     39 C          10.4080   18.5759   43.8949 C.ar    1  UNL1        0.0626
     40 C           5.9318   13.7637   43.3331 C.ar    1  UNL1        0.1351
     41 C           7.3126   11.8388   43.6945 C.ar    1  UNL1       -0.0580
     42 O          19.8646   16.2528   42.3427 O.3     1  UNL1       -0.3865
     43 O          18.0711   16.2128   39.6407 O.3     1  UNL1       -0.3924
     44 O           5.8145   16.5903   43.4348 O.2     1  UNL1       -0.2864
     45 O           6.9015   18.8727   42.8943 O.3     1  UNL1       -0.5060
     46 C           9.1644   19.1452   43.6114 C.ar    1  UNL1       -0.0055
     47 C          11.6402   19.4389   44.0483 C.2     1  UNL1        0.3369
     48 O           4.6647   14.3276   43.1925 O.3     1  UNL1       -0.4601
     49 C           6.0651   12.3878   43.4324 C.ar    1  UNL1       -0.0191
     50 O          11.6097   20.5014   44.6336 O.2     1  UNL1       -0.2451
     51 O          12.7796   18.9905   43.5655 O.3     1  UNL1       -0.4771
     52 C           3.4525   13.6876   42.7324 C.3     1  UNL1        0.2308
     53 O           3.1534   14.0641   41.3635 O.3     1  UNL1       -0.3313
     54 C           2.2733   14.1227   43.6474 C.3     1  UNL1        0.1454
     55 C           2.9648   15.4880   41.1409 C.3     1  UNL1        0.1140
     56 O           2.5856   13.8417   45.0230 O.3     1  UNL1       -0.3829
     57 C           1.9261   15.6288   43.4776 C.3     1  UNL1        0.1152
     58 C           1.7711   16.0128   41.9891 C.3     1  UNL1        0.1120
     59 C           2.7961   15.7302   39.6198 C.3     1  UNL1        0.0731
     60 O           0.6662   15.9096   44.1032 O.3     1  UNL1       -0.3864
     61 O           0.5108   15.5119   41.5262 O.3     1  UNL1       -0.3865
     62 O           2.6326   17.1232   39.3278 O.3     1  UNL1       -0.3924
     63 H          15.0910   13.1180   44.7797 H       1  UNL1        0.0654
     64 H          11.1528   12.1032   43.5915 H       1  UNL1        0.0621
     65 H          10.5477   13.6002   41.8223 H       1  UNL1        0.0407
     66 H          12.2467   18.9155   39.3151 H       1  UNL1        0.2922
     67 H          10.3424   18.2106   38.5441 H       1  UNL1        0.0662
     68 H           8.4877   14.9865   40.7007 H       1  UNL1        0.0629
     69 H          16.5616   13.7115   43.0316 H       1  UNL1        0.1084
     70 H          13.1833   11.5719   44.8082 H       1  UNL1        0.0619
     71 H           9.7220   14.5752   44.5267 H       1  UNL1        0.0407
     72 H          17.7904   16.3174   44.1435 H       1  UNL1        0.0683
     73 H          18.1543   13.4795   41.4186 H       1  UNL1        0.0647
     74 H          16.1640   14.7994   45.4452 H       1  UNL1        0.2102
     75 H          18.8739   13.4723   43.9797 H       1  UNL1        0.0648
     76 H          11.5059   16.7257   44.0378 H       1  UNL1        0.0629
     77 H           9.3589   12.1731   44.0562 H       1  UNL1        0.0621
     78 H           7.0383   18.0529   37.6025 H       1  UNL1        0.2954
     79 H          20.3493   14.2536   42.2110 H       1  UNL1        0.0647
     80 H          18.3625   14.1967   39.2626 H       1  UNL1        0.0584
     81 H          19.7862   15.0839   39.8511 H       1  UNL1        0.0584
     82 H          19.9680   15.9683   44.8426 H       1  UNL1        0.2100
     83 H           7.4125   10.7652   43.8288 H       1  UNL1        0.0619
     84 H          19.8636   16.5152   41.4032 H       1  UNL1        0.2100
     85 H          18.3119   16.8828   40.3084 H       1  UNL1        0.2095
     86 H           6.8499   19.8207   42.9058 H       1  UNL1        0.2922
     87 H           9.0636   20.2204   43.4951 H       1  UNL1        0.0662
     88 H           5.2028   11.7314   43.3616 H       1  UNL1        0.0654
     89 H          12.6725   18.1395   43.1001 H       1  UNL1        0.2954
     90 H           3.5899   12.5957   42.7801 H       1  UNL1        0.1084
     91 H           1.3977   13.5318   43.3651 H       1  UNL1        0.0683
     92 H           3.8685   16.0093   41.4644 H       1  UNL1        0.0647
     93 H           1.8074   14.0332   45.5876 H       1  UNL1        0.2102
     94 H           2.7156   16.2350   43.9320 H       1  UNL1        0.0648
     95 H           1.7497   17.1045   41.9148 H       1  UNL1        0.0647
     96 H           1.9093   15.1918   39.2743 H       1  UNL1        0.0584
     97 H           3.6656   15.3393   39.0821 H       1  UNL1        0.0584
     98 H           0.0023   15.3722   43.6034 H       1  UNL1        0.2100
     99 H           0.5506   14.5448   41.5646 H       1  UNL1        0.2100
    100 H           2.4774   17.2205   38.3688 H       1  UNL1        0.2095
@<TRIPOS>BOND
     1     1     2    2
     2     2     3    1
     3     2     4    1
     4     3     5   ar
     5     3     6   ar
     6     4     7   ar
     7     4     8   ar
     8     5     9    1
     9     5    10   ar
    10     6    11   ar
    11     6    12    1
    12     7    13    1
    13     7    14   ar
    14     8    15   ar
    15     9    16    1
    16    10    17   ar
    17    12    18    1
    18    14    19   ar
    19    16    20    1
    20    16    21    1
    21    18    22    1
    22    18    23    1
    23    19    24    1
    24    20    25    1
    25    21    26    1
    26    21    27    1
    27    22    28   ar
    28    22    29   ar
    29    23    30   ar
    30    23    31   ar
    31    24    32    2
    32    24    33    1
    33    25    34    1
    34    25    35    1
    35    27    36    1
    36    28    37    1
    37    28    38   ar
    38    29    39   ar
    39    30    40   ar
    40    31    41   ar
    41    34    42    1
    42    35    43    1
    43    37    44    2
    44    38    45    1
    45    38    46   ar
    46    39    47    1
    47    40    48    1
    48    40    49   ar
    49    47    50    2
    50    47    51    1
    51    48    52    1
    52    52    53    1
    53    52    54    1
    54    53    55    1
    55    54    56    1
    56    54    57    1
    57    55    58    1
    58    55    59    1
    59    57    60    1
    60    58    61    1
    61    59    62    1
    62     8    12    1
    63    11    17   ar
    64    15    19   ar
    65    27    34    1
    66    30    37    1
    67    39    46   ar
    68    41    49   ar
    69    57    58    1
    70    10    63    1
    71    11    64    1
    72    12    65    1
    73    13    66    1
    74    14    67    1
    75    15    68    1
    76    16    69    1
    77    17    70    1
    78    18    71    1
    79    21    72    1
    80    25    73    1
    81    26    74    1
    82    27    75    1
    83    29    76    1
    84    31    77    1
    85    33    78    1
    86    34    79    1
    87    35    80    1
    88    35    81    1
    89    36    82    1
    90    41    83    1
    91    42    84    1
    92    43    85    1
    93    45    86    1
    94    46    87    1
    95    49    88    1
    96    51    89    1
    97    52    90    1
    98    54    91    1
    99    55    92    1
   100    56    93    1
   101    57    94    1
   102    58    95    1
   103    59    96    1
   104    59    97    1
   105    60    98    1
   106    61    99    1
   107    62   100    1
@<TRIPOS>SUBSTRUCTURE
     1 UNL1        1 TEMP              0 ****  ****    0 ROOT


##########                                Name:                 122
##########                DOCK_Rotatable_Bonds:                  21
##########                         Heavy_Atoms:                  62
##########                    Molecular_Weight:             862.751
##########                       Formal_Charge:         0.000199914
##########                     HBond_Acceptors:                  20
##########                        HBond_Donors:                  12
##########                    Continuous_Score:          -54.870239
##########               Continuous_vdw_energy:          -51.460224
##########                Continuous_es_energy:           -3.410016
##########           Internal_energy_repulsive:           44.310818

@<TRIPOS>MOLECULE
122
 100 107 1 0 0
SMALL
GASTEIGER


@<TRIPOS>ATOM
      1 O          13.6249   16.8250   41.5361 O.2     1  UNL1       -0.2864
      2 C          12.7040   16.0479   41.7036 C.2     1  UNL1        0.2007
      3 C          12.8330   14.8410   42.6026 C.ar    1  UNL1        0.0679
      4 C          11.4243   16.2072   40.9216 C.ar    1  UNL1        0.0675
      5 C          14.0661   14.4901   43.1948 C.ar    1  UNL1        0.1351
      6 C          11.7168   14.0074   42.7868 C.ar    1  UNL1       -0.0247
      7 C          11.2877   17.1983   39.9283 C.ar    1  UNL1        0.1287
      8 C          10.3386   15.3596   41.1958 C.ar    1  UNL1       -0.0240
      9 O          15.1855   15.2688   42.9700 O.3     1  UNL1       -0.4601
     10 C          14.1715   13.3419   43.9788 C.ar    1  UNL1       -0.0191
     11 C          11.9108   12.7707   43.4281 C.ar    1  UNL1       -0.0571
     12 C          10.3942   14.4538   42.3376 C.3     1  UNL1        0.0217
     13 O          12.3019   18.0670   39.6227 O.3     1  UNL1       -0.5060
     14 C          10.0871   17.3490   39.2323 C.ar    1  UNL1       -0.0055
     15 C           9.1439   15.5170   40.4734 C.ar    1  UNL1       -0.0431
     16 C          16.5616   14.8322   42.8685 C.3     1  UNL1        0.2308
     17 C          13.1095   12.4583   44.0515 C.ar    1  UNL1       -0.0580
     18 C           9.4907   14.7973   43.4548 C.3     1  UNL1        0.0217
     19 C           8.9932   16.5271   39.5075 C.ar    1  UNL1        0.0626
     20 O          17.1113   15.2048   41.5898 O.3     1  UNL1       -0.3313
     21 C          17.5037   15.3650   43.9824 C.3     1  UNL1        0.1454
     22 C           9.3428   16.2389   43.6605 C.ar    1  UNL1       -0.0240
     23 C           8.2972   13.9331   43.5567 C.ar    1  UNL1       -0.0247
     24 C           7.6378   16.7593   38.8747 C.2     1  UNL1        0.3369
     25 C          18.3524   14.5223   41.2928 C.3     1  UNL1        0.1140
     26 O          16.9571   15.0971   45.2816 O.3     1  UNL1       -0.3829
     27 C          18.8950   14.7069   43.7856 C.3     1  UNL1        0.1152
     28 C           8.0772   16.8281   43.5382 C.ar    1  UNL1        0.0675
     29 C          10.4572   17.0743   43.8658 C.ar    1  UNL1       -0.0431
     30 C           6.9993   14.4837   43.4757 C.ar    1  UNL1        0.0679
     31 C           8.3847   12.5491   43.7737 C.ar    1  UNL1       -0.0571
     32 O           6.8267   15.8617   38.7751 O.2     1  UNL1       -0.2451
     33 O           7.2989   17.9762   38.4982 O.3     1  UNL1       -0.4771
     34 C          19.4216   14.9443   42.3400 C.3     1  UNL1        0.1120
     35 C          18.7461   14.8479   39.8358 C.3     1  UNL1        0.0731
     36 O          19.8398   15.2346   44.7236 O.3     1  UNL1       -0.3864
     37 C           6.8414   15.9732   43.4897 C.2     1  UNL1        0.2007
     38 C           7.9670   18.2230   43.4576 C.ar    1  UNL1        0.1287
     39 C          10.3347   18.4770   43.8818 C.ar    1  UNL1        0.0626
     40 C           5.8627   13.6485   43.4375 C.ar    1  UNL1        0.1351
     41 C           7.2667   11.7263   43.7137 C.ar    1  UNL1       -0.0580
     42 O          19.7729   16.3256   42.1697 O.3     1  UNL1       -0.3865
     43 O          18.1228   16.0705   39.4245 O.3     1  UNL1       -0.3924
     44 O           5.7358   16.4728   43.5845 O.2     1  UNL1       -0.2864
     45 O           6.7882   18.7685   43.0321 O.3     1  UNL1       -0.5060
     46 C           9.0775   19.0434   43.6585 C.ar    1  UNL1       -0.0055
     47 C          11.5680   19.3443   43.9964 C.2     1  UNL1        0.3369
     48 O           4.5880   14.2074   43.3577 O.3     1  UNL1       -0.4601
     49 C           6.0066   12.2722   43.5115 C.ar    1  UNL1       -0.0191
     50 O          11.5474   20.4157   44.5659 O.2     1  UNL1       -0.2451
     51 O          12.6981   18.8907   43.4968 O.3     1  UNL1       -0.4771
     52 C           3.3564   13.5607   42.9629 C.3     1  UNL1        0.2308
     53 O           2.8731   14.0896   41.7012 O.3     1  UNL1       -0.3313
     54 C           2.2830   13.8061   44.0605 C.3     1  UNL1        0.1454
     55 C           2.5972   15.5166   41.6940 C.3     1  UNL1        0.1140
     56 O           2.7763   13.3717   45.3398 O.3     1  UNL1       -0.3829
     57 C           1.8531   15.2986   44.1347 C.3     1  UNL1        0.1152
     58 C           1.4972   15.8585   42.7394 C.3     1  UNL1        0.1120
     59 C           2.2299   15.9395   40.2492 C.3     1  UNL1        0.0731
     60 O           0.6701   15.4231   44.9364 O.3     1  UNL1       -0.3864
     61 O           0.2117   15.3469   42.3660 O.3     1  UNL1       -0.3865
     62 O           3.2537   15.5654   39.3194 O.3     1  UNL1       -0.3924
     63 H          15.0977   13.0971   44.4900 H       1  UNL1        0.0654
     64 H          11.1257   12.0296   43.4725 H       1  UNL1        0.0621
     65 H          10.4198   13.5272   41.7416 H       1  UNL1        0.0407
     66 H          11.9273   18.8752   39.1814 H       1  UNL1        0.2922
     67 H           9.9995   18.1523   38.5050 H       1  UNL1        0.0662
     68 H           8.2913   14.8885   40.7219 H       1  UNL1        0.0629
     69 H          16.5205   13.7321   42.9040 H       1  UNL1        0.1084
     70 H          13.2162   11.5223   44.5940 H       1  UNL1        0.0619
     71 H           9.6951   14.4640   44.4842 H       1  UNL1        0.0407
     72 H          17.6275   16.4440   43.8824 H       1  UNL1        0.0683
     73 H          18.1823   13.4438   41.3717 H       1  UNL1        0.0647
     74 H          15.9986   14.9454   45.2188 H       1  UNL1        0.2102
     75 H          18.7993   13.6302   43.9529 H       1  UNL1        0.0648
     76 H          11.4466   16.6310   43.9526 H       1  UNL1        0.0629
     77 H           9.3247   12.0667   43.9950 H       1  UNL1        0.0621
     78 H           6.5922   18.0009   37.8285 H       1  UNL1        0.2954
     79 H          20.3205   14.3385   42.1923 H       1  UNL1        0.0647
     80 H          18.4272   14.0362   39.1772 H       1  UNL1        0.0584
     81 H          19.8310   14.9605   39.7559 H       1  UNL1        0.0584
     82 H          19.8590   16.2075   44.6128 H       1  UNL1        0.2100
     83 H           7.3774   10.6516   43.8283 H       1  UNL1        0.0619
     84 H          19.7846   16.5290   41.2158 H       1  UNL1        0.2100
     85 H          18.3285   16.7759   40.0670 H       1  UNL1        0.2095
     86 H           6.7228   19.7143   43.0840 H       1  UNL1        0.2922
     87 H           8.9668   20.1195   43.5620 H       1  UNL1        0.0662
     88 H           5.1454   11.6121   43.4672 H       1  UNL1        0.0654
     89 H          12.5809   18.0380   43.0371 H       1  UNL1        0.2954
     90 H           3.5455   12.4816   42.8483 H       1  UNL1        0.1084
     91 H           1.4053   13.2053   43.8074 H       1  UNL1        0.0683
     92 H           3.5111   16.0450   41.9750 H       1  UNL1        0.0647
     93 H           2.0610   13.4236   46.0082 H       1  UNL1        0.2102
     94 H           2.6663   15.8876   44.5694 H       1  UNL1        0.0648
     95 H           1.4200   16.9475   42.8141 H       1  UNL1        0.0647
     96 H           2.1087   17.0257   40.2209 H       1  UNL1        0.0584
     97 H           1.2799   15.4808   39.9574 H       1  UNL1        0.0584
     98 H          -0.0198   14.8920   44.4661 H       1  UNL1        0.2100
     99 H           0.2894   14.3835   42.3029 H       1  UNL1        0.2100
    100 H           2.9917   15.8763   38.4317 H       1  UNL1        0.2095
@<TRIPOS>BOND
     1     1     2    2
     2     2     3    1
     3     2     4    1
     4     3     5   ar
     5     3     6   ar
     6     4     7   ar
     7     4     8   ar
     8     5     9    1
     9     5    10   ar
    10     6    11   ar
    11     6    12    1
    12     7    13    1
    13     7    14   ar
    14     8    15   ar
    15     9    16    1
    16    10    17   ar
    17    12    18    1
    18    14    19   ar
    19    16    20    1
    20    16    21    1
    21    18    22    1
    22    18    23    1
    23    19    24    1
    24    20    25    1
    25    21    26    1
    26    21    27    1
    27    22    28   ar
    28    22    29   ar
    29    23    30   ar
    30    23    31   ar
    31    24    32    2
    32    24    33    1
    33    25    34    1
    34    25    35    1
    35    27    36    1
    36    28    37    1
    37    28    38   ar
    38    29    39   ar
    39    30    40   ar
    40    31    41   ar
    41    34    42    1
    42    35    43    1
    43    37    44    2
    44    38    45    1
    45    38    46   ar
    46    39    47    1
    47    40    48    1
    48    40    49   ar
    49    47    50    2
    50    47    51    1
    51    48    52    1
    52    52    53    1
    53    52    54    1
    54    53    55    1
    55    54    56    1
    56    54    57    1
    57    55    58    1
    58    55    59    1
    59    57    60    1
    60    58    61    1
    61    59    62    1
    62     8    12    1
    63    11    17   ar
    64    15    19   ar
    65    27    34    1
    66    30    37    1
    67    39    46   ar
    68    41    49   ar
    69    57    58    1
    70    10    63    1
    71    11    64    1
    72    12    65    1
    73    13    66    1
    74    14    67    1
    75    15    68    1
    76    16    69    1
    77    17    70    1
    78    18    71    1
    79    21    72    1
    80    25    73    1
    81    26    74    1
    82    27    75    1
    83    29    76    1
    84    31    77    1
    85    33    78    1
    86    34    79    1
    87    35    80    1
    88    35    81    1
    89    36    82    1
    90    41    83    1
    91    42    84    1
    92    43    85    1
    93    45    86    1
    94    46    87    1
    95    49    88    1
    96    51    89    1
    97    52    90    1
    98    54    91    1
    99    55    92    1
   100    56    93    1
   101    57    94    1
   102    58    95    1
   103    59    96    1
   104    59    97    1
   105    60    98    1
   106    61    99    1
   107    62   100    1
@<TRIPOS>SUBSTRUCTURE
     1 UNL1        1 TEMP              0 ****  ****    0 ROOT


##########                                Name:                 123
##########                DOCK_Rotatable_Bonds:                   2
##########                         Heavy_Atoms:                  14
##########                    Molecular_Weight:             192.171
##########                       Formal_Charge:         0.000100002
##########                     HBond_Acceptors:                   4
##########                        HBond_Donors:                   1
##########                    Continuous_Score:          -28.426943
##########               Continuous_vdw_energy:          -26.990334
##########                Continuous_es_energy:           -1.436609
##########           Internal_energy_repulsive:            2.685947

@<TRIPOS>MOLECULE
123
 22 23 1 0 0
SMALL
GASTEIGER


@<TRIPOS>ATOM
      1 O          21.0326    7.6794   42.8858 O.2     1  UNL1       -0.2452
      2 C          21.6314    8.1986   41.9669 C.ar    1  UNL1        0.3372
      3 O          21.6826    7.6174   40.7425 O.2     1  UNL1       -0.4220
      4 C          22.3472    9.4802   42.0775 C.ar    1  UNL1        0.0236
      5 C          22.3441    8.1417   39.6507 C.ar    1  UNL1        0.1427
      6 C          23.0445   10.0670   40.9674 C.ar    1  UNL1       -0.0442
      7 C          23.0387    9.3921   39.7541 C.ar    1  UNL1        0.0213
      8 C          22.3217    7.4347   38.4040 C.ar    1  UNL1        0.0265
      9 C          23.6890    9.8917   38.6283 C.ar    1  UNL1       -0.0056
     10 C          22.9851    7.9687   37.2985 C.ar    1  UNL1        0.1620
     11 C          23.6714    9.1998   37.4124 C.ar    1  UNL1        0.1621
     12 O          22.9353    7.2553   36.1327 O.3     1  UNL1       -0.5032
     13 O          24.3660    9.8226   36.3814 O.3     1  UNL1       -0.4914
     14 C          24.4909   11.2497   36.1746 C.3     1  UNL1        0.0790
     15 H          22.3098    9.9504   43.0548 H       1  UNL1        0.0689
     16 H          23.5633   11.0164   41.0728 H       1  UNL1        0.0627
     17 H          21.7892    6.4895   38.3333 H       1  UNL1        0.0692
     18 H          24.2221   10.8378   38.6907 H       1  UNL1        0.0662
     19 H          23.7058    6.6635   36.0732 H       1  UNL1        0.2923
     20 H          25.0913   11.4264   35.2789 H       1  UNL1        0.0660
     21 H          24.9859   11.7019   37.0383 H       1  UNL1        0.0660
     22 H          23.4981   11.6874   36.0376 H       1  UNL1        0.0660
@<TRIPOS>BOND
     1     1     2    2
     2     2     3   ar
     3     2     4   ar
     4     3     5   ar
     5     4     6   ar
     6     5     7   ar
     7     5     8   ar
     8     7     9   ar
     9     8    10   ar
    10     9    11   ar
    11    10    12    1
    12    11    13    1
    13    13    14    1
    14     6     7   ar
    15    10    11   ar
    16     4    15    1
    17     6    16    1
    18     8    17    1
    19     9    18    1
    20    12    19    1
    21    14    20    1
    22    14    21    1
    23    14    22    1
@<TRIPOS>SUBSTRUCTURE
     1 UNL1        1 TEMP              0 ****  ****    0 ROOT


##########                                Name:                 123
##########                DOCK_Rotatable_Bonds:                   2
##########                         Heavy_Atoms:                  14
##########                    Molecular_Weight:             192.171
##########                       Formal_Charge:         0.000100002
##########                     HBond_Acceptors:                   4
##########                        HBond_Donors:                   1
##########                    Continuous_Score:          -27.627575
##########               Continuous_vdw_energy:          -27.068466
##########                Continuous_es_energy:           -0.559108
##########           Internal_energy_repulsive:            3.402129

@<TRIPOS>MOLECULE
123
 22 23 1 0 0
SMALL
GASTEIGER


@<TRIPOS>ATOM
      1 O          21.0426    7.7029   42.9273 O.2     1  UNL1       -0.2452
      2 C          21.6267    8.2250   42.0006 C.ar    1  UNL1        0.3372
      3 O          21.6749    7.6380   40.7788 O.2     1  UNL1       -0.4220
      4 C          22.3266    9.5164   42.0984 C.ar    1  UNL1        0.0236
      5 C          22.3202    8.1652   39.6787 C.ar    1  UNL1        0.1427
      6 C          23.0069   10.1062   40.9794 C.ar    1  UNL1       -0.0442
      7 C          22.9994    9.4249   39.7697 C.ar    1  UNL1        0.0213
      8 C          22.2962    7.4514   38.4358 C.ar    1  UNL1        0.0265
      9 C          23.6335    9.9270   38.6358 C.ar    1  UNL1       -0.0056
     10 C          22.9432    7.9882   37.3220 C.ar    1  UNL1        0.1620
     11 C          23.6143    9.2286   37.4236 C.ar    1  UNL1        0.1621
     12 O          22.8926    7.2680   36.1603 O.3     1  UNL1       -0.5032
     13 O          24.2920    9.8550   36.3834 O.3     1  UNL1       -0.4914
     14 C          24.6422   11.2574   36.3133 C.3     1  UNL1        0.0790
     15 H          22.2915    9.9911   43.0736 H       1  UNL1        0.0689
     16 H          23.5142   11.0629   41.0753 H       1  UNL1        0.0627
     17 H          21.7754    6.4991   38.3747 H       1  UNL1        0.0692
     18 H          24.1548   10.8802   38.6887 H       1  UNL1        0.0662
     19 H          22.3701    6.4579   36.2952 H       1  UNL1        0.2923
     20 H          25.1639   11.4454   35.3718 H       1  UNL1        0.0660
     21 H          25.2993   11.5121   37.1493 H       1  UNL1        0.0660
     22 H          23.7328   11.8636   36.3510 H       1  UNL1        0.0660
@<TRIPOS>BOND
     1     1     2    2
     2     2     3   ar
     3     2     4   ar
     4     3     5   ar
     5     4     6   ar
     6     5     7   ar
     7     5     8   ar
     8     7     9   ar
     9     8    10   ar
    10     9    11   ar
    11    10    12    1
    12    11    13    1
    13    13    14    1
    14     6     7   ar
    15    10    11   ar
    16     4    15    1
    17     6    16    1
    18     8    17    1
    19     9    18    1
    20    12    19    1
    21    14    20    1
    22    14    21    1
    23    14    22    1
@<TRIPOS>SUBSTRUCTURE
     1 UNL1        1 TEMP              0 ****  ****    0 ROOT


##########                                Name:                 123
##########                DOCK_Rotatable_Bonds:                   2
##########                         Heavy_Atoms:                  14
##########                    Molecular_Weight:             192.171
##########                       Formal_Charge:         0.000100002
##########                     HBond_Acceptors:                   4
##########                        HBond_Donors:                   1
##########                    Continuous_Score:          -27.058899
##########               Continuous_vdw_energy:          -26.813938
##########                Continuous_es_energy:           -0.244961
##########           Internal_energy_repulsive:            4.434333

@<TRIPOS>MOLECULE
123
 22 23 1 0 0
SMALL
GASTEIGER


@<TRIPOS>ATOM
      1 O          21.0451    7.9386   43.0084 O.2     1  UNL1       -0.2452
      2 C          21.6518    8.3838   42.0564 C.ar    1  UNL1        0.3372
      3 O          21.6701    7.7329   40.8667 O.2     1  UNL1       -0.4220
      4 C          22.4125    9.6439   42.0880 C.ar    1  UNL1        0.0236
      5 C          22.3378    8.1712   39.7413 C.ar    1  UNL1        0.1427
      6 C          23.1180   10.1421   40.9405 C.ar    1  UNL1       -0.0442
      7 C          23.0762    9.4004   39.7675 C.ar    1  UNL1        0.0213
      8 C          22.2780    7.3962   38.5370 C.ar    1  UNL1        0.0265
      9 C          23.7316    9.8124   38.6097 C.ar    1  UNL1       -0.0056
     10 C          22.9479    7.8433   37.3973 C.ar    1  UNL1        0.1620
     11 C          23.6773    9.0541   37.4353 C.ar    1  UNL1        0.1621
     12 O          22.8612    7.0673   36.2744 O.3     1  UNL1       -0.5032
     13 O          24.3820    9.5930   36.3647 O.3     1  UNL1       -0.4914
     14 C          24.4761    9.0320   35.0339 C.3     1  UNL1        0.0790
     15 H          22.4016   10.1695   43.0373 H       1  UNL1        0.0689
     16 H          23.6703   11.0772   40.9873 H       1  UNL1        0.0627
     17 H          21.7124    6.4677   38.5247 H       1  UNL1        0.0692
     18 H          24.2976   10.7413   38.6137 H       1  UNL1        0.0662
     19 H          22.3340    6.2708   36.4620 H       1  UNL1        0.2923
     20 H          25.1040    9.6817   34.4193 H       1  UNL1        0.0660
     21 H          23.4776    8.9693   34.5924 H       1  UNL1        0.0660
     22 H          24.9273    8.0374   35.0876 H       1  UNL1        0.0660
@<TRIPOS>BOND
     1     1     2    2
     2     2     3   ar
     3     2     4   ar
     4     3     5   ar
     5     4     6   ar
     6     5     7   ar
     7     5     8   ar
     8     7     9   ar
     9     8    10   ar
    10     9    11   ar
    11    10    12    1
    12    11    13    1
    13    13    14    1
    14     6     7   ar
    15    10    11   ar
    16     4    15    1
    17     6    16    1
    18     8    17    1
    19     9    18    1
    20    12    19    1
    21    14    20    1
    22    14    21    1
    23    14    22    1
@<TRIPOS>SUBSTRUCTURE
     1 UNL1        1 TEMP              0 ****  ****    0 ROOT


##########                                Name:                 125
##########                DOCK_Rotatable_Bonds:                   4
##########                         Heavy_Atoms:                  20
##########                    Molecular_Weight:             272.257
##########                       Formal_Charge:         0.000299931
##########                     HBond_Acceptors:                   5
##########                        HBond_Donors:                   3
##########                    Continuous_Score:          -34.458797
##########               Continuous_vdw_energy:          -29.591160
##########                Continuous_es_energy:           -4.867636
##########           Internal_energy_repulsive:            4.353083

@<TRIPOS>MOLECULE
125
 32 34 1 0 0
SMALL
GASTEIGER


@<TRIPOS>ATOM
      1 O          16.9388   14.1115   45.9940 O.2     1  UNL1       -0.2917
      2 C          16.5258   14.0453   44.8514 C.2     1  UNL1        0.1740
      3 C          17.4101   14.1490   43.6314 C.ar    1  UNL1        0.1007
      4 C          15.0493   13.8435   44.6045 C.3     1  UNL1        0.0520
      5 C          16.8277   14.0143   42.3606 C.ar    1  UNL1        0.1389
      6 C          18.7942   14.3627   43.7250 C.ar    1  UNL1        0.1343
      7 C          14.8690   12.9755   43.3498 C.3     1  UNL1        0.1322
      8 O          15.4871   13.6756   42.2389 O.3     1  UNL1       -0.4828
      9 C          17.6046   14.1553   41.2092 C.ar    1  UNL1        0.0225
     10 O          19.4203   14.4150   44.9329 O.3     1  UNL1       -0.5058
     11 C          19.5655   14.4935   42.5730 C.ar    1  UNL1        0.0222
     12 C          13.4084   12.6439   43.0975 C.ar    1  UNL1       -0.0067
     13 C          18.9743   14.4036   41.3166 C.ar    1  UNL1        0.1238
     14 C          12.5171   13.5702   42.5504 C.ar    1  UNL1       -0.0516
     15 C          12.9398   11.3885   43.4896 C.ar    1  UNL1       -0.0516
     16 O          19.7580   14.5295   40.2069 O.3     1  UNL1       -0.5065
     17 C          11.1683   13.2407   42.4039 C.ar    1  UNL1       -0.0198
     18 C          11.5966   11.0586   43.3434 C.ar    1  UNL1       -0.0198
     19 C          10.7086   11.9853   42.8061 C.ar    1  UNL1        0.1169
     20 O           9.3924   11.6522   42.6977 O.3     1  UNL1       -0.5068
     21 H          14.5669   14.8138   44.4624 H       1  UNL1        0.0385
     22 H          14.5901   13.3555   45.4679 H       1  UNL1        0.0385
     23 H          15.4233   12.0427   43.4932 H       1  UNL1        0.0789
     24 H          17.1411   14.0513   40.2311 H       1  UNL1        0.0691
     25 H          20.3681   14.5943   44.7513 H       1  UNL1        0.2922
     26 H          20.6377   14.6594   42.6558 H       1  UNL1        0.0691
     27 H          12.8674   14.5545   42.2486 H       1  UNL1        0.0623
     28 H          13.6208   10.6641   43.9300 H       1  UNL1        0.0623
     29 H          19.5856   13.8054   39.5836 H       1  UNL1        0.2921
     30 H          10.4795   13.9689   41.9837 H       1  UNL1        0.0654
     31 H          11.2404   10.0828   43.6627 H       1  UNL1        0.0654
     32 H           9.1188   11.1141   43.4584 H       1  UNL1        0.2921
@<TRIPOS>BOND
     1     1     2    2
     2     2     3    1
     3     2     4    1
     4     3     5   ar
     5     3     6   ar
     6     7     4    1
     7     5     8    1
     8     5     9   ar
     9     6    10    1
    10     6    11   ar
    11     9    13   ar
    12    12    14   ar
    13    12    15   ar
    14    13    16    1
    15    14    17   ar
    16    15    18   ar
    17    17    19   ar
    18    19    20    1
    19     7     8    1
    20    11    13   ar
    21    18    19   ar
    22     7    12    1
    23     4    21    1
    24     4    22    1
    25     7    23    1
    26     9    24    1
    27    10    25    1
    28    11    26    1
    29    14    27    1
    30    15    28    1
    31    16    29    1
    32    17    30    1
    33    18    31    1
    34    20    32    1
@<TRIPOS>SUBSTRUCTURE
     1 UNL1        1 TEMP              0 ****  ****    0 ROOT


##########                                Name:                 125
##########                DOCK_Rotatable_Bonds:                   4
##########                         Heavy_Atoms:                  20
##########                    Molecular_Weight:             272.257
##########                       Formal_Charge:         0.000299931
##########                     HBond_Acceptors:                   5
##########                        HBond_Donors:                   3
##########                    Continuous_Score:          -33.645493
##########               Continuous_vdw_energy:          -30.008036
##########                Continuous_es_energy:           -3.637455
##########           Internal_energy_repulsive:            4.507489

@<TRIPOS>MOLECULE
125
 32 34 1 0 0
SMALL
GASTEIGER


@<TRIPOS>ATOM
      1 O          16.7046   14.0323   46.1224 O.2     1  UNL1       -0.2917
      2 C          16.2461   13.9718   44.9969 C.2     1  UNL1        0.1740
      3 C          17.0773   14.1073   43.7432 C.ar    1  UNL1        0.1007
      4 C          14.7649   13.7445   44.8080 C.3     1  UNL1        0.0520
      5 C          16.4458   13.9766   42.4955 C.ar    1  UNL1        0.1389
      6 C          18.4600   14.3466   43.7828 C.ar    1  UNL1        0.1343
      7 C          14.5496   12.8883   43.5509 C.3     1  UNL1        0.1322
      8 O          15.1080   13.6134   42.4246 O.3     1  UNL1       -0.4828
      9 C          17.1719   14.1463   41.3153 C.ar    1  UNL1        0.0225
     10 O          19.1340   14.3966   44.9646 O.3     1  UNL1       -0.5058
     11 C          19.1806   14.5062   42.6019 C.ar    1  UNL1        0.0222
     12 C          13.0862   12.5315   43.3543 C.ar    1  UNL1       -0.0067
     13 C          18.5399   14.4199   41.3698 C.ar    1  UNL1        0.1238
     14 C          12.1022   13.5027   43.1537 C.ar    1  UNL1       -0.0516
     15 C          12.7173   11.1878   43.4434 C.ar    1  UNL1       -0.0516
     16 O          19.2747   14.5741   40.2306 O.3     1  UNL1       -0.5065
     17 C          10.7613   13.1286   43.0492 C.ar    1  UNL1       -0.0198
     18 C          11.3819   10.8136   43.3386 C.ar    1  UNL1       -0.0198
     19 C          10.4021   11.7830   43.1472 C.ar    1  UNL1        0.1169
     20 O           9.0977   11.3977   43.0754 O.3     1  UNL1       -0.5068
     21 H          14.2588   14.7070   44.6984 H       1  UNL1        0.0385
     22 H          14.3509   13.2374   45.6832 H       1  UNL1        0.0385
     23 H          15.1267   11.9648   43.6595 H       1  UNL1        0.0789
     24 H          16.6705   14.0452   40.3558 H       1  UNL1        0.0691
     25 H          20.0806   14.5325   44.7433 H       1  UNL1        0.2922
     26 H          20.2519   14.6917   42.6429 H       1  UNL1        0.0691
     27 H          12.3753   14.5536   43.0909 H       1  UNL1        0.0623
     28 H          13.4721   10.4240   43.6138 H       1  UNL1        0.0623
     29 H          18.7090   14.4921   39.4459 H       1  UNL1        0.2921
     30 H          10.0005   13.8904   42.8999 H       1  UNL1        0.0654
     31 H          11.1045    9.7661   43.4211 H       1  UNL1        0.0654
     32 H           8.5157   12.1737   43.1215 H       1  UNL1        0.2921
@<TRIPOS>BOND
     1     1     2    2
     2     2     3    1
     3     2     4    1
     4     3     5   ar
     5     3     6   ar
     6     7     4    1
     7     5     8    1
     8     5     9   ar
     9     6    10    1
    10     6    11   ar
    11     9    13   ar
    12    12    14   ar
    13    12    15   ar
    14    13    16    1
    15    14    17   ar
    16    15    18   ar
    17    17    19   ar
    18    19    20    1
    19     7     8    1
    20    11    13   ar
    21    18    19   ar
    22     7    12    1
    23     4    21    1
    24     4    22    1
    25     7    23    1
    26     9    24    1
    27    10    25    1
    28    11    26    1
    29    14    27    1
    30    15    28    1
    31    16    29    1
    32    17    30    1
    33    18    31    1
    34    20    32    1
@<TRIPOS>SUBSTRUCTURE
     1 UNL1        1 TEMP              0 ****  ****    0 ROOT


##########                                Name:                 125
##########                DOCK_Rotatable_Bonds:                   4
##########                         Heavy_Atoms:                  20
##########                    Molecular_Weight:             272.257
##########                       Formal_Charge:         0.000299931
##########                     HBond_Acceptors:                   5
##########                        HBond_Donors:                   3
##########                    Continuous_Score:          -33.590767
##########               Continuous_vdw_energy:          -30.018795
##########                Continuous_es_energy:           -3.571974
##########           Internal_energy_repulsive:            4.450458

@<TRIPOS>MOLECULE
125
 32 34 1 0 0
SMALL
GASTEIGER


@<TRIPOS>ATOM
      1 O          16.6281   13.9830   46.0814 O.2     1  UNL1       -0.2917
      2 C          16.1701   13.9382   44.9549 C.2     1  UNL1        0.1740
      3 C          17.0017   14.0921   43.7037 C.ar    1  UNL1        0.1007
      4 C          14.6891   13.7124   44.7624 C.3     1  UNL1        0.0520
      5 C          16.3707   13.9787   42.4540 C.ar    1  UNL1        0.1389
      6 C          18.3841   14.3318   43.7471 C.ar    1  UNL1        0.1343
      7 C          14.4749   12.8739   43.4930 C.3     1  UNL1        0.1322
      8 O          15.0331   13.6155   42.3774 O.3     1  UNL1       -0.4828
      9 C          17.0970   14.1658   41.2766 C.ar    1  UNL1        0.0225
     10 O          19.0577   14.3656   44.9297 O.3     1  UNL1       -0.5058
     11 C          19.1050   14.5088   42.5689 C.ar    1  UNL1        0.0222
     12 C          13.0118   12.5189   43.2909 C.ar    1  UNL1       -0.0067
     13 C          18.4648   14.4395   41.3353 C.ar    1  UNL1        0.1238
     14 C          12.0361   13.4882   43.0455 C.ar    1  UNL1       -0.0516
     15 C          12.6339   11.1811   43.4210 C.ar    1  UNL1       -0.0516
     16 O          19.1998   14.6105   40.1988 O.3     1  UNL1       -0.5065
     17 C          10.6943   13.1182   42.9374 C.ar    1  UNL1       -0.0198
     18 C          11.2976   10.8110   43.3126 C.ar    1  UNL1       -0.0198
     19 C          10.3260   11.7788   43.0765 C.ar    1  UNL1        0.1169
     20 O           9.0202   11.3986   43.0019 O.3     1  UNL1       -0.5068
     21 H          14.1822   14.6759   44.6662 H       1  UNL1        0.0385
     22 H          14.2752   13.1926   45.6301 H       1  UNL1        0.0385
     23 H          15.0526   11.9494   43.5888 H       1  UNL1        0.0789
     24 H          16.5961   14.0778   40.3155 H       1  UNL1        0.0691
     25 H          20.0041   14.5063   44.7109 H       1  UNL1        0.2922
     26 H          20.1761   14.6945   42.6129 H       1  UNL1        0.0691
     27 H          12.3162   14.5347   42.9504 H       1  UNL1        0.0623
     28 H          13.3820   10.4193   43.6264 H       1  UNL1        0.0623
     29 H          20.1372   14.7409   40.4151 H       1  UNL1        0.2921
     30 H           9.9401   13.8788   42.7532 H       1  UNL1        0.0654
     31 H          11.0130    9.7685   43.4272 H       1  UNL1        0.0654
     32 H           8.4498   12.1771   42.8946 H       1  UNL1        0.2921
@<TRIPOS>BOND
     1     1     2    2
     2     2     3    1
     3     2     4    1
     4     3     5   ar
     5     3     6   ar
     6     7     4    1
     7     5     8    1
     8     5     9   ar
     9     6    10    1
    10     6    11   ar
    11     9    13   ar
    12    12    14   ar
    13    12    15   ar
    14    13    16    1
    15    14    17   ar
    16    15    18   ar
    17    17    19   ar
    18    19    20    1
    19     7     8    1
    20    11    13   ar
    21    18    19   ar
    22     7    12    1
    23     4    21    1
    24     4    22    1
    25     7    23    1
    26     9    24    1
    27    10    25    1
    28    11    26    1
    29    14    27    1
    30    15    28    1
    31    16    29    1
    32    17    30    1
    33    18    31    1
    34    20    32    1
@<TRIPOS>SUBSTRUCTURE
     1 UNL1        1 TEMP              0 ****  ****    0 ROOT


##########                                Name:                 137
##########                DOCK_Rotatable_Bonds:                  15
##########                         Heavy_Atoms:                  32
##########                    Molecular_Weight:             457.434
##########                       Formal_Charge:          0.00030005
##########                     HBond_Acceptors:                  12
##########                        HBond_Donors:                   7
##########                    Continuous_Score:          -44.581738
##########               Continuous_vdw_energy:          -41.898819
##########                Continuous_es_energy:           -2.682920
##########           Internal_energy_repulsive:           12.752629

@<TRIPOS>MOLECULE
137
 59 61 1 0 0
SMALL
GASTEIGER


@<TRIPOS>ATOM
      1 O           7.7434   12.3119   42.3505 O.3     1  UNL1       -0.3405
      2 C           6.3467   12.5361   42.0305 C.3     1  UNL1        0.1899
      3 C           8.5729   13.4797   42.6178 C.3     1  UNL1        0.1134
      4 O           5.6731   13.1253   43.1872 O.3     1  UNL1       -0.3262
      5 C           6.3092   13.4305   40.7596 C.3     1  UNL1        0.1342
      6 C           8.4833   14.4727   41.4219 C.3     1  UNL1        0.1119
      7 C          10.0068   12.9370   42.8061 C.3     1  UNL1        0.0796
      8 C           4.6157   12.3494   43.8179 C.3     1  UNL1        0.1722
      9 O           4.9926   13.6499   40.2438 O.3     1  UNL1       -0.3841
     10 C           7.0200   14.7701   41.0287 C.3     1  UNL1        0.1141
     11 O           9.0880   15.7203   41.7430 O.3     1  UNL1       -0.3865
     12 O          10.9115   13.9877   43.2221 O.3     1  UNL1       -0.3460
     13 C           5.0891   10.9204   44.0275 C.1     1  UNL1        0.0992
     14 C           4.1932   12.9555   45.1479 C.ar    1  UNL1       -0.0049
     15 O           6.3524   15.5346   42.0576 O.3     1  UNL1       -0.3864
     16 C          12.1557   14.0028   42.4828 C.3     1  UNL1        0.1880
     17 N           5.4820    9.7348   44.2014 N.1     1  UNL1       -0.1935
     18 C           4.5522   14.2750   45.4316 C.ar    1  UNL1       -0.0551
     19 C           3.4167   12.2448   46.0672 C.ar    1  UNL1       -0.0551
     20 O          12.9022   12.7755   42.7096 O.3     1  UNL1       -0.3405
     21 C          13.0134   15.2269   42.8925 C.3     1  UNL1        0.1341
     22 C           4.1428   14.8801   46.6171 C.ar    1  UNL1       -0.0614
     23 C           3.0095   12.8498   47.2564 C.ar    1  UNL1       -0.0614
     24 C          13.3615   12.5577   44.0728 C.3     1  UNL1        0.1130
     25 O          12.2552   16.4389   42.7826 O.3     1  UNL1       -0.3841
     26 C          13.5642   15.0577   44.3276 C.3     1  UNL1        0.1141
     27 C           3.3708   14.1681   47.5299 C.ar    1  UNL1       -0.0617
     28 C          14.3133   13.7119   44.4573 C.3     1  UNL1        0.1119
     29 C          14.0699   11.1880   44.1598 C.3     1  UNL1        0.0730
     30 O          14.4710   16.1178   44.6326 O.3     1  UNL1       -0.3864
     31 O          15.4559   13.6976   43.5873 O.3     1  UNL1       -0.3865
     32 O          13.1017   10.1407   44.1866 O.3     1  UNL1       -0.3924
     33 H           5.9064   11.5481   41.8254 H       1  UNL1        0.0938
     34 H           8.2268   13.9568   43.5394 H       1  UNL1        0.0647
     35 H           6.8683   12.9034   39.9807 H       1  UNL1        0.0671
     36 H           9.0015   14.0387   40.5619 H       1  UNL1        0.0647
     37 H          10.3531   12.5240   41.8538 H       1  UNL1        0.0587
     38 H          10.0156   12.1443   43.5593 H       1  UNL1        0.0587
     39 H           3.7403   12.3313   43.1718 H       1  UNL1        0.0808
     40 H           5.0575   14.2208   39.4530 H       1  UNL1        0.2101
     41 H           7.0220   15.3568   40.1056 H       1  UNL1        0.0648
     42 H          10.0193   15.5088   41.9250 H       1  UNL1        0.2100
     43 H           5.3775   15.5378   41.8841 H       1  UNL1        0.2100
     44 H          11.9177   14.0652   41.4096 H       1  UNL1        0.0937
     45 H           5.1441   14.8460   44.7189 H       1  UNL1        0.0621
     46 H           3.1176   11.2210   45.8563 H       1  UNL1        0.0621
     47 H          13.8535   15.2933   42.1957 H       1  UNL1        0.0671
     48 H           4.4193   15.9117   46.8244 H       1  UNL1        0.0618
     49 H           2.4019   12.2957   47.9670 H       1  UNL1        0.0618
     50 H          12.4973   12.5599   44.7444 H       1  UNL1        0.0647
     51 H          11.3499   16.2851   43.1143 H       1  UNL1        0.2101
     52 H          12.7326   15.0787   45.0381 H       1  UNL1        0.0648
     53 H           3.0447   14.6421   48.4531 H       1  UNL1        0.0618
     54 H          14.6457   13.5860   45.4917 H       1  UNL1        0.0647
     55 H          14.6730   11.1449   45.0710 H       1  UNL1        0.0584
     56 H          14.7276   11.0467   43.2978 H       1  UNL1        0.0584
     57 H          15.3667   15.7378   44.5693 H       1  UNL1        0.2100
     58 H          16.2115   13.3474   44.1022 H       1  UNL1        0.2100
     59 H          12.5227   10.2914   44.9524 H       1  UNL1        0.2095
@<TRIPOS>BOND
     1     1     2    1
     2     1     3    1
     3     2     4    1
     4     2     5    1
     5     3     6    1
     6     3     7    1
     7     4     8    1
     8     5     9    1
     9     5    10    1
    10     6    11    1
    11     7    12    1
    12     8    13    1
    13     8    14    1
    14    10    15    1
    15    12    16    1
    16    13    17    3
    17    14    18   ar
    18    14    19   ar
    19    16    20    1
    20    16    21    1
    21    18    22   ar
    22    19    23   ar
    23    20    24    1
    24    21    25    1
    25    21    26    1
    26    22    27   ar
    27    24    28    1
    28    24    29    1
    29    26    30    1
    30    28    31    1
    31    29    32    1
    32     6    10    1
    33    23    27   ar
    34    26    28    1
    35     2    33    1
    36     3    34    1
    37     5    35    1
    38     6    36    1
    39     7    37    1
    40     7    38    1
    41     8    39    1
    42     9    40    1
    43    10    41    1
    44    11    42    1
    45    15    43    1
    46    16    44    1
    47    18    45    1
    48    19    46    1
    49    21    47    1
    50    22    48    1
    51    23    49    1
    52    24    50    1
    53    25    51    1
    54    26    52    1
    55    27    53    1
    56    28    54    1
    57    29    55    1
    58    29    56    1
    59    30    57    1
    60    31    58    1
    61    32    59    1
@<TRIPOS>SUBSTRUCTURE
     1 UNL1        1 TEMP              0 ****  ****    0 ROOT


##########                                Name:                 137
##########                DOCK_Rotatable_Bonds:                  15
##########                         Heavy_Atoms:                  32
##########                    Molecular_Weight:             457.434
##########                       Formal_Charge:          0.00030005
##########                     HBond_Acceptors:                  12
##########                        HBond_Donors:                   7
##########                    Continuous_Score:          -43.734089
##########               Continuous_vdw_energy:          -42.367329
##########                Continuous_es_energy:           -1.366759
##########           Internal_energy_repulsive:           10.800133

@<TRIPOS>MOLECULE
137
 59 61 1 0 0
SMALL
GASTEIGER


@<TRIPOS>ATOM
      1 O           8.9839   12.6247   43.7568 O.3     1  UNL1       -0.3405
      2 C           7.7762   12.2673   43.0377 C.3     1  UNL1        0.1899
      3 C           9.1975   14.0330   44.0640 C.3     1  UNL1        0.1134
      4 O           6.6104   12.5749   43.8654 O.3     1  UNL1       -0.3262
      5 C           7.8072   13.0355   41.6866 C.3     1  UNL1        0.1342
      6 C           9.1231   14.8735   42.7552 C.3     1  UNL1        0.1119
      7 C          10.5959   14.1091   44.7155 C.3     1  UNL1        0.0796
      8 C           5.3668   11.8833   43.5605 C.3     1  UNL1        0.1722
      9 O           6.7321   12.6996   40.8040 O.3     1  UNL1       -0.3841
     10 C           7.8528   14.5544   41.9374 C.3     1  UNL1        0.1141
     11 O           9.0936   16.2674   43.0400 O.3     1  UNL1       -0.3865
     12 O          11.5768   13.3904   43.9299 O.3     1  UNL1       -0.3460
     13 C           5.5241   10.4004   43.8548 C.1     1  UNL1        0.0992
     14 C           4.2011   12.4488   44.3581 C.ar    1  UNL1       -0.0049
     15 O           6.6671   15.0216   42.6192 O.3     1  UNL1       -0.3864
     16 C          12.8524   13.2413   44.5974 C.3     1  UNL1        0.1880
     17 N           5.6547    9.1702   44.0990 N.1     1  UNL1       -0.1935
     18 C           4.1539   12.2224   45.7354 C.ar    1  UNL1       -0.0551
     19 C           3.2076   13.2273   43.7581 C.ar    1  UNL1       -0.0551
     20 O          13.5048   14.5320   44.7515 O.3     1  UNL1       -0.3405
     21 C          13.7690   12.2768   43.8029 C.3     1  UNL1        0.1341
     22 C           3.1291   12.7647   46.5066 C.ar    1  UNL1       -0.0614
     23 C           2.1788   13.7676   44.5302 C.ar    1  UNL1       -0.0614
     24 C          13.8847   15.1996   43.5159 C.3     1  UNL1        0.1130
     25 O          13.0985   11.0363   43.5431 O.3     1  UNL1       -0.3841
     26 C          14.2400   12.9280   42.4816 C.3     1  UNL1        0.1141
     27 C           2.1414   13.5380   45.9046 C.ar    1  UNL1       -0.0617
     28 C          14.8918   14.3007   42.7651 C.3     1  UNL1        0.1119
     29 C          14.4964   16.5784   43.8483 C.3     1  UNL1        0.0730
     30 O          15.1997   12.0898   41.8370 O.3     1  UNL1       -0.3864
     31 O          16.0702   14.1307   43.5682 O.3     1  UNL1       -0.3865
     32 O          13.4598   17.5477   43.9941 O.3     1  UNL1       -0.3924
     33 H           7.8183   11.1801   42.8694 H       1  UNL1        0.0938
     34 H           8.4327   14.3609   44.7742 H       1  UNL1        0.0647
     35 H           8.7327   12.7506   41.1776 H       1  UNL1        0.0671
     36 H          10.0036   14.6551   42.1440 H       1  UNL1        0.0647
     37 H          10.5424   13.6640   45.7136 H       1  UNL1        0.0587
     38 H          10.9135   15.1512   44.8096 H       1  UNL1        0.0587
     39 H           5.1315   12.0021   42.5047 H       1  UNL1        0.0808
     40 H           6.7807   13.2779   40.0175 H       1  UNL1        0.2101
     41 H           7.9241   15.0662   40.9734 H       1  UNL1        0.0648
     42 H           8.2651   16.4064   43.5294 H       1  UNL1        0.2100
     43 H           6.7643   15.9855   42.8240 H       1  UNL1        0.2100
     44 H          12.6692   12.8285   45.6016 H       1  UNL1        0.0937
     45 H           4.9287   11.6308   46.2190 H       1  UNL1        0.0621
     46 H           3.2361   13.4241   42.6892 H       1  UNL1        0.0621
     47 H          14.6432   12.0611   44.4233 H       1  UNL1        0.0671
     48 H           3.1068   12.5908   47.5803 H       1  UNL1        0.0618
     49 H           1.4103   14.3762   44.0610 H       1  UNL1        0.0618
     50 H          12.9923   15.3406   42.8984 H       1  UNL1        0.0647
     51 H          13.3078   10.4005   44.2538 H       1  UNL1        0.2101
     52 H          13.3794   13.0659   41.8204 H       1  UNL1        0.0648
     53 H           1.3443   13.9676   46.5073 H       1  UNL1        0.0618
     54 H          15.1666   14.7687   41.8155 H       1  UNL1        0.0647
     55 H          15.1665   16.8861   43.0408 H       1  UNL1        0.0584
     56 H          15.0701   16.5238   44.7775 H       1  UNL1        0.0584
     57 H          15.8851   11.8968   42.5032 H       1  UNL1        0.2100
     58 H          16.6527   13.4961   43.1026 H       1  UNL1        0.2100
     59 H          12.8330   17.2143   44.6575 H       1  UNL1        0.2095
@<TRIPOS>BOND
     1     1     2    1
     2     1     3    1
     3     2     4    1
     4     2     5    1
     5     3     6    1
     6     3     7    1
     7     4     8    1
     8     5     9    1
     9     5    10    1
    10     6    11    1
    11     7    12    1
    12     8    13    1
    13     8    14    1
    14    10    15    1
    15    12    16    1
    16    13    17    3
    17    14    18   ar
    18    14    19   ar
    19    16    20    1
    20    16    21    1
    21    18    22   ar
    22    19    23   ar
    23    20    24    1
    24    21    25    1
    25    21    26    1
    26    22    27   ar
    27    24    28    1
    28    24    29    1
    29    26    30    1
    30    28    31    1
    31    29    32    1
    32     6    10    1
    33    23    27   ar
    34    26    28    1
    35     2    33    1
    36     3    34    1
    37     5    35    1
    38     6    36    1
    39     7    37    1
    40     7    38    1
    41     8    39    1
    42     9    40    1
    43    10    41    1
    44    11    42    1
    45    15    43    1
    46    16    44    1
    47    18    45    1
    48    19    46    1
    49    21    47    1
    50    22    48    1
    51    23    49    1
    52    24    50    1
    53    25    51    1
    54    26    52    1
    55    27    53    1
    56    28    54    1
    57    29    55    1
    58    29    56    1
    59    30    57    1
    60    31    58    1
    61    32    59    1
@<TRIPOS>SUBSTRUCTURE
     1 UNL1        1 TEMP              0 ****  ****    0 ROOT


##########                                Name:                 137
##########                DOCK_Rotatable_Bonds:                  15
##########                         Heavy_Atoms:                  32
##########                    Molecular_Weight:             457.434
##########                       Formal_Charge:          0.00030005
##########                     HBond_Acceptors:                  12
##########                        HBond_Donors:                   7
##########                    Continuous_Score:          -42.817963
##########               Continuous_vdw_energy:          -41.347038
##########                Continuous_es_energy:           -1.470925
##########           Internal_energy_repulsive:           10.581734

@<TRIPOS>MOLECULE
137
 59 61 1 0 0
SMALL
GASTEIGER


@<TRIPOS>ATOM
      1 O           9.0075   12.6807   43.7419 O.3     1  UNL1       -0.3405
      2 C           7.7928   12.3699   43.0129 C.3     1  UNL1        0.1899
      3 C           9.2487   14.0742   44.0929 C.3     1  UNL1        0.1134
      4 O           6.6334   12.6741   43.8508 O.3     1  UNL1       -0.3262
      5 C           7.8385   13.1794   41.6866 C.3     1  UNL1        0.1342
      6 C           9.1907   14.9567   42.8113 C.3     1  UNL1        0.1119
      7 C          10.6486   14.1023   44.7453 C.3     1  UNL1        0.0796
      8 C           5.3859   11.9883   43.5491 C.3     1  UNL1        0.1722
      9 O           6.7569   12.8926   40.7947 O.3     1  UNL1       -0.3841
     10 C           7.9141   14.6884   41.9849 C.3     1  UNL1        0.1141
     11 O           9.1886   16.3412   43.1398 O.3     1  UNL1       -0.3865
     12 O          11.6057   13.3534   43.9584 O.3     1  UNL1       -0.3460
     13 C           5.5331   10.5067   43.8555 C.1     1  UNL1        0.0992
     14 C           4.2225   12.5676   44.3400 C.ar    1  UNL1       -0.0049
     15 O           6.7380   15.1572   42.6821 O.3     1  UNL1       -0.3864
     16 C          12.8754   13.1612   44.6258 C.3     1  UNL1        0.1880
     17 N           5.6552    9.2777   44.1096 N.1     1  UNL1       -0.1935
     18 C           3.2800   13.3542   43.6738 C.ar    1  UNL1       -0.0551
     19 C           4.0471   12.2932   45.6990 C.ar    1  UNL1       -0.0551
     20 O          13.5502   14.4347   44.8215 O.3     1  UNL1       -0.3405
     21 C          13.7782   12.2050   43.8058 C.3     1  UNL1        0.1341
     22 C           2.1756   13.8618   44.3531 C.ar    1  UNL1       -0.0614
     23 C           2.9424   12.8047   46.3804 C.ar    1  UNL1       -0.0614
     24 C          13.9471   15.1327   43.6083 C.3     1  UNL1        0.1130
     25 O          13.0867   10.9852   43.5057 O.3     1  UNL1       -0.3841
     26 C          14.2663   12.8876   42.5066 C.3     1  UNL1        0.1141
     27 C           2.0058   13.5869   45.7065 C.ar    1  UNL1       -0.0617
     28 C          14.9412   14.2390   42.8343 C.3     1  UNL1        0.1119
     29 C          14.5817   16.4894   43.9848 C.3     1  UNL1        0.0730
     30 O          15.2136   12.0522   41.8404 O.3     1  UNL1       -0.3864
     31 O          16.1130   14.0236   43.6361 O.3     1  UNL1       -0.3865
     32 O          13.5639   17.4782   44.1318 O.3     1  UNL1       -0.3924
     33 H           7.8135   11.2878   42.8106 H       1  UNL1        0.0938
     34 H           8.4908   14.3945   44.8138 H       1  UNL1        0.0647
     35 H           8.7582   12.8925   41.1681 H       1  UNL1        0.0671
     36 H          10.0665   14.7403   42.1928 H       1  UNL1        0.0647
     37 H          10.5797   13.6567   45.7423 H       1  UNL1        0.0587
     38 H          11.0005   15.1331   44.8421 H       1  UNL1        0.0587
     39 H           5.1534   12.1002   42.4920 H       1  UNL1        0.0808
     40 H           6.7549   13.5598   40.0805 H       1  UNL1        0.2101
     41 H           7.9953   15.2288   41.0375 H       1  UNL1        0.0648
     42 H           8.3788   16.4747   43.6611 H       1  UNL1        0.2100
     43 H           6.8402   16.1204   42.8881 H       1  UNL1        0.2100
     44 H          12.6806   12.7214   45.6162 H       1  UNL1        0.0937
     45 H           3.3953   13.5641   42.6123 H       1  UNL1        0.0621
     46 H           4.7644   11.6721   46.2299 H       1  UNL1        0.0621
     47 H          14.6457   11.9550   44.4225 H       1  UNL1        0.0671
     48 H           1.4418   14.4653   43.8231 H       1  UNL1        0.0618
     49 H           2.8067   12.5857   47.4362 H       1  UNL1        0.0618
     50 H          13.0599   15.3083   42.9920 H       1  UNL1        0.0647
     51 H          13.2628   10.3321   44.2097 H       1  UNL1        0.2101
     52 H          13.4111   13.0608   41.8468 H       1  UNL1        0.0648
     53 H           1.1397   13.9774   46.2364 H       1  UNL1        0.0618
     54 H          15.2283   14.7308   41.9004 H       1  UNL1        0.0647
     55 H          15.2752   16.8002   43.1985 H       1  UNL1        0.0584
     56 H          15.1346   16.4011   44.9240 H       1  UNL1        0.0584
     57 H          15.9132   11.8592   42.4915 H       1  UNL1        0.2100
     58 H          16.6877   13.3959   43.1519 H       1  UNL1        0.2100
     59 H          12.9116   17.1403   44.7679 H       1  UNL1        0.2095
@<TRIPOS>BOND
     1     1     2    1
     2     1     3    1
     3     2     4    1
     4     2     5    1
     5     3     6    1
     6     3     7    1
     7     4     8    1
     8     5     9    1
     9     5    10    1
    10     6    11    1
    11     7    12    1
    12     8    13    1
    13     8    14    1
    14    10    15    1
    15    12    16    1
    16    13    17    3
    17    14    18   ar
    18    14    19   ar
    19    16    20    1
    20    16    21    1
    21    18    22   ar
    22    19    23   ar
    23    20    24    1
    24    21    25    1
    25    21    26    1
    26    22    27   ar
    27    24    28    1
    28    24    29    1
    29    26    30    1
    30    28    31    1
    31    29    32    1
    32     6    10    1
    33    23    27   ar
    34    26    28    1
    35     2    33    1
    36     3    34    1
    37     5    35    1
    38     6    36    1
    39     7    37    1
    40     7    38    1
    41     8    39    1
    42     9    40    1
    43    10    41    1
    44    11    42    1
    45    15    43    1
    46    16    44    1
    47    18    45    1
    48    19    46    1
    49    21    47    1
    50    22    48    1
    51    23    49    1
    52    24    50    1
    53    25    51    1
    54    26    52    1
    55    27    53    1
    56    28    54    1
    57    29    55    1
    58    29    56    1
    59    30    57    1
    60    31    58    1
    61    32    59    1
@<TRIPOS>SUBSTRUCTURE
     1 UNL1        1 TEMP              0 ****  ****    0 ROOT


##########                                Name:                 138
##########                DOCK_Rotatable_Bonds:                   1
##########                         Heavy_Atoms:                  11
##########                    Molecular_Weight:             151.252
##########                       Formal_Charge:         0.000499945
##########                     HBond_Acceptors:                   1
##########                        HBond_Donors:                   2
##########                    Continuous_Score:          -19.352327
##########               Continuous_vdw_energy:          -18.826687
##########                Continuous_es_energy:           -0.525641
##########           Internal_energy_repulsive:            2.575251

@<TRIPOS>MOLECULE
138
 28 30 1 0 0
SMALL
GASTEIGER


@<TRIPOS>ATOM
      1 N          11.2972   12.0583   43.4861 N.3     1  UNL1       -0.3246
      2 C          12.5812   12.7644   43.6369 C.3     1  UNL1        0.0172
      3 C          13.6503   11.7951   44.2103 C.3     1  UNL1       -0.0320
      4 C          12.4086   13.9650   44.6065 C.3     1  UNL1       -0.0320
      5 C          13.0571   13.2885   42.2548 C.3     1  UNL1       -0.0320
      6 C          15.0017   12.5379   44.3693 C.3     1  UNL1       -0.0389
      7 C          13.7589   14.7100   44.7657 C.3     1  UNL1       -0.0389
      8 C          14.4079   14.0330   42.4119 C.3     1  UNL1       -0.0389
      9 C          14.8202   13.7353   45.3370 C.3     1  UNL1       -0.0472
     10 C          15.4686   13.0592   42.9861 C.3     1  UNL1       -0.0472
     11 C          14.2264   15.2285   43.3817 C.3     1  UNL1       -0.0472
     12 H          10.5537   12.7256   43.2906 H       1  UNL1        0.1187
     13 H          11.0565   11.5839   44.3540 H       1  UNL1        0.1187
     14 H          13.7769   10.9368   43.5450 H       1  UNL1        0.0286
     15 H          13.3264   11.4066   45.1796 H       1  UNL1        0.0286
     16 H          12.0626   13.6150   45.5827 H       1  UNL1        0.0286
     17 H          11.6498   14.6528   44.2236 H       1  UNL1        0.0286
     18 H          12.3099   13.9643   41.8301 H       1  UNL1        0.0286
     19 H          13.1734   12.4563   41.5553 H       1  UNL1        0.0286
     20 H          15.7503   11.8520   44.7729 H       1  UNL1        0.0302
     21 H          13.6320   15.5536   45.4484 H       1  UNL1        0.0302
     22 H          14.7381   14.3999   41.4371 H       1  UNL1        0.0302
     23 H          15.7721   14.2557   45.4710 H       1  UNL1        0.0271
     24 H          14.5073   13.3768   46.3209 H       1  UNL1        0.0271
     25 H          15.6160   12.2206   42.3007 H       1  UNL1        0.0271
     26 H          16.4305   13.5692   43.0836 H       1  UNL1        0.0271
     27 H          15.1687   15.7730   43.4850 H       1  UNL1        0.0271
     28 H          13.4914   15.9295   42.9775 H       1  UNL1        0.0271
@<TRIPOS>BOND
     1     1     2    1
     2     2     3    1
     3     2     4    1
     4     2     5    1
     5     3     6    1
     6     4     7    1
     7     5     8    1
     8     6     9    1
     9     6    10    1
    10     7    11    1
    11     7     9    1
    12     8    10    1
    13     8    11    1
    14     1    12    1
    15     1    13    1
    16     3    14    1
    17     3    15    1
    18     4    16    1
    19     4    17    1
    20     5    18    1
    21     5    19    1
    22     6    20    1
    23     7    21    1
    24     8    22    1
    25     9    23    1
    26     9    24    1
    27    10    25    1
    28    10    26    1
    29    11    27    1
    30    11    28    1
@<TRIPOS>SUBSTRUCTURE
     1 UNL1        1 TEMP              0 ****  ****    0 ROOT


##########                                Name:                 138
##########                DOCK_Rotatable_Bonds:                   1
##########                         Heavy_Atoms:                  11
##########                    Molecular_Weight:             151.252
##########                       Formal_Charge:         0.000499945
##########                     HBond_Acceptors:                   1
##########                        HBond_Donors:                   2
##########                    Continuous_Score:          -18.439167
##########               Continuous_vdw_energy:          -17.925714
##########                Continuous_es_energy:           -0.513453
##########           Internal_energy_repulsive:            2.575303

@<TRIPOS>MOLECULE
138
 28 30 1 0 0
SMALL
GASTEIGER


@<TRIPOS>ATOM
      1 N          11.6608   11.6061   43.3134 N.3     1  UNL1       -0.3246
      2 C          12.7747   12.5447   43.5329 C.3     1  UNL1        0.0172
      3 C          13.9641   11.8026   44.2005 C.3     1  UNL1       -0.0320
      4 C          12.3107   13.7016   44.4590 C.3     1  UNL1       -0.0320
      5 C          13.2398   13.1340   42.1736 C.3     1  UNL1       -0.0320
      6 C          15.1365   12.7901   44.4320 C.3     1  UNL1       -0.0389
      7 C          13.4815   14.6912   44.6905 C.3     1  UNL1       -0.0389
      8 C          14.4114   14.1231   42.4031 C.3     1  UNL1       -0.0389
      9 C          14.6645   13.9420   45.3558 C.3     1  UNL1       -0.0472
     10 C          15.5933   13.3750   43.0710 C.3     1  UNL1       -0.0472
     11 C          13.9396   15.2733   43.3290 C.3     1  UNL1       -0.0472
     12 H          11.2824   11.2996   44.2073 H       1  UNL1        0.1187
     13 H          11.9948   10.7769   42.8265 H       1  UNL1        0.1187
     14 H          14.2971   10.9764   43.5665 H       1  UNL1        0.0286
     15 H          13.6515   11.3705   45.1550 H       1  UNL1        0.0286
     16 H          11.9687   13.3032   45.4180 H       1  UNL1        0.0286
     17 H          11.4648   14.2284   44.0092 H       1  UNL1        0.0286
     18 H          12.4105   13.6509   41.6831 H       1  UNL1        0.0286
     19 H          13.5602   12.3313   41.5041 H       1  UNL1        0.0286
     20 H          15.9705   12.2633   44.9018 H       1  UNL1        0.0302
     21 H          13.1498   15.5029   45.3424 H       1  UNL1        0.0302
     22 H          14.7346   14.5351   41.4440 H       1  UNL1        0.0302
     23 H          15.4892   14.6352   45.5407 H       1  UNL1        0.0271
     24 H          14.3558   13.5418   46.3248 H       1  UNL1        0.0271
     25 H          15.9444   12.5719   42.4179 H       1  UNL1        0.0271
     26 H          16.4326   14.0593   43.2207 H       1  UNL1        0.0271
     27 H          14.7525   15.9879   43.4821 H       1  UNL1        0.0271
     28 H          13.1161   15.8174   42.8591 H       1  UNL1        0.0271
@<TRIPOS>BOND
     1     1     2    1
     2     2     3    1
     3     2     4    1
     4     2     5    1
     5     3     6    1
     6     4     7    1
     7     5     8    1
     8     6     9    1
     9     6    10    1
    10     7    11    1
    11     7     9    1
    12     8    10    1
    13     8    11    1
    14     1    12    1
    15     1    13    1
    16     3    14    1
    17     3    15    1
    18     4    16    1
    19     4    17    1
    20     5    18    1
    21     5    19    1
    22     6    20    1
    23     7    21    1
    24     8    22    1
    25     9    23    1
    26     9    24    1
    27    10    25    1
    28    10    26    1
    29    11    27    1
    30    11    28    1
@<TRIPOS>SUBSTRUCTURE
     1 UNL1        1 TEMP              0 ****  ****    0 ROOT


##########                                Name:                 138
##########                DOCK_Rotatable_Bonds:                   1
##########                         Heavy_Atoms:                  11
##########                    Molecular_Weight:             151.252
##########                       Formal_Charge:         0.000499945
##########                     HBond_Acceptors:                   1
##########                        HBond_Donors:                   2
##########                    Continuous_Score:          -17.394646
##########               Continuous_vdw_energy:          -17.144522
##########                Continuous_es_energy:           -0.250125
##########           Internal_energy_repulsive:            2.575444

@<TRIPOS>MOLECULE
138
 28 30 1 0 0
SMALL
GASTEIGER


@<TRIPOS>ATOM
      1 N          11.8475   11.3971   43.2169 N.3     1  UNL1       -0.3246
      2 C          12.8657   12.4309   43.4704 C.3     1  UNL1        0.0172
      3 C          12.2784   13.5322   44.3944 C.3     1  UNL1       -0.0320
      4 C          13.3061   13.0736   42.1271 C.3     1  UNL1       -0.0320
      5 C          14.1016   11.7923   44.1603 C.3     1  UNL1       -0.0320
      6 C          13.3497   14.6206   44.6612 C.3     1  UNL1       -0.0389
      7 C          14.3786   14.1613   42.3917 C.3     1  UNL1       -0.0389
      8 C          15.1747   12.8788   44.4267 C.3     1  UNL1       -0.0389
      9 C          13.7848   15.2555   43.3155 C.3     1  UNL1       -0.0472
     10 C          14.5802   13.9745   45.3480 C.3     1  UNL1       -0.0472
     11 C          15.6074   13.5152   43.0811 C.3     1  UNL1       -0.0472
     12 H          11.1460   11.7506   42.5693 H       1  UNL1        0.1187
     13 H          11.3674   11.1613   44.0829 H       1  UNL1        0.1187
     14 H          11.9523   13.0952   45.3420 H       1  UNL1        0.0286
     15 H          11.3992   13.9859   43.9291 H       1  UNL1        0.0286
     16 H          12.4451   13.5190   41.6216 H       1  UNL1        0.0286
     17 H          13.7119   12.3093   41.4587 H       1  UNL1        0.0286
     18 H          14.5215   11.0052   43.5282 H       1  UNL1        0.0286
     19 H          13.8073   11.3247   45.1039 H       1  UNL1        0.0286
     20 H          12.9318   15.3929   45.3115 H       1  UNL1        0.0302
     21 H          14.6851   14.6101   41.4437 H       1  UNL1        0.0302
     22 H          16.0420   12.4244   44.9117 H       1  UNL1        0.0302
     23 H          14.5271   16.0377   43.4936 H       1  UNL1        0.0271
     24 H          12.9271   15.7289   42.8308 H       1  UNL1        0.0271
     25 H          14.2872   13.5385   46.3065 H       1  UNL1        0.0271
     26 H          15.3348   14.7371   45.5576 H       1  UNL1        0.0271
     27 H          16.3787   14.2700   43.2549 H       1  UNL1        0.0271
     28 H          16.0430   12.7527   42.4301 H       1  UNL1        0.0271
@<TRIPOS>BOND
     1     1     2    1
     2     2     3    1
     3     2     4    1
     4     2     5    1
     5     3     6    1
     6     4     7    1
     7     5     8    1
     8     6     9    1
     9     6    10    1
    10     7    11    1
    11     7     9    1
    12     8    10    1
    13     8    11    1
    14     1    12    1
    15     1    13    1
    16     3    14    1
    17     3    15    1
    18     4    16    1
    19     4    17    1
    20     5    18    1
    21     5    19    1
    22     6    20    1
    23     7    21    1
    24     8    22    1
    25     9    23    1
    26     9    24    1
    27    10    25    1
    28    10    26    1
    29    11    27    1
    30    11    28    1
@<TRIPOS>SUBSTRUCTURE
     1 UNL1        1 TEMP              0 ****  ****    0 ROOT


##########                                Name:                 139
##########                DOCK_Rotatable_Bonds:                   2
##########                         Heavy_Atoms:                   8
##########                    Molecular_Weight:             110.112
##########                       Formal_Charge:        -2.98023e-08
##########                     HBond_Acceptors:                   2
##########                        HBond_Donors:                   2
##########                    Continuous_Score:          -20.087725
##########               Continuous_vdw_energy:          -17.898739
##########                Continuous_es_energy:           -2.188987
##########           Internal_energy_repulsive:            0.079667

@<TRIPOS>MOLECULE
139
 14 14 1 0 0
SMALL
GASTEIGER


@<TRIPOS>ATOM
      1 O          21.9998    6.8672   39.6161 O.3     1  UNL1       -0.5033
      2 C          22.3721    8.0792   40.1208 C.ar    1  UNL1        0.1582
      3 C          22.0999    8.4089   41.4519 C.ar    1  UNL1        0.1582
      4 C          22.9982    9.0068   39.2890 C.ar    1  UNL1       -0.0165
      5 O          21.5423    7.4909   42.2936 O.3     1  UNL1       -0.5033
      6 C          22.4313    9.6736   41.9366 C.ar    1  UNL1       -0.0165
      7 C          23.3369   10.2674   39.7785 C.ar    1  UNL1       -0.0581
      8 C          23.0487   10.6026   41.1004 C.ar    1  UNL1       -0.0581
      9 H          21.6294    6.3220   40.3343 H       1  UNL1        0.2923
     10 H          23.2118    8.7524   38.2535 H       1  UNL1        0.0655
     11 H          21.3834    6.6633   41.8036 H       1  UNL1        0.2923
     12 H          22.2198    9.9327   42.9714 H       1  UNL1        0.0655
     13 H          23.8207   10.9907   39.1268 H       1  UNL1        0.0619
     14 H          23.3105   11.5865   41.4819 H       1  UNL1        0.0619
@<TRIPOS>BOND
     1     1     2    1
     2     2     3   ar
     3     2     4   ar
     4     3     5    1
     5     3     6   ar
     6     4     7   ar
     7     6     8   ar
     8     7     8   ar
     9     1     9    1
    10     4    10    1
    11     5    11    1
    12     6    12    1
    13     7    13    1
    14     8    14    1
@<TRIPOS>SUBSTRUCTURE
     1 UNL1        1 TEMP              0 ****  ****    0 ROOT


##########                                Name:                 139
##########                DOCK_Rotatable_Bonds:                   2
##########                         Heavy_Atoms:                   8
##########                    Molecular_Weight:             110.112
##########                       Formal_Charge:        -2.98023e-08
##########                     HBond_Acceptors:                   2
##########                        HBond_Donors:                   2
##########                    Continuous_Score:          -19.844166
##########               Continuous_vdw_energy:          -18.008747
##########                Continuous_es_energy:           -1.835419
##########           Internal_energy_repulsive:            0.079675

@<TRIPOS>MOLECULE
139
 14 14 1 0 0
SMALL
GASTEIGER


@<TRIPOS>ATOM
      1 O          21.5049    7.6110   42.1221 O.3     1  UNL1       -0.5033
      2 C          22.1038    8.4597   41.2372 C.ar    1  UNL1        0.1582
      3 C          22.3903    8.0420   39.9342 C.ar    1  UNL1        0.1582
      4 C          22.4625    9.7423   41.6506 C.ar    1  UNL1       -0.0165
      5 O          21.9923    6.8121   39.4970 O.3     1  UNL1       -0.5033
      6 C          23.0574    8.8994   39.0600 C.ar    1  UNL1       -0.0165
      7 C          23.1210   10.6010   40.7718 C.ar    1  UNL1       -0.0581
      8 C          23.4233   10.1777   39.4787 C.ar    1  UNL1       -0.0581
      9 H          21.3824    6.7417   41.6984 H       1  UNL1        0.2923
     10 H          22.2398   10.0700   42.6633 H       1  UNL1        0.0655
     11 H          21.5511    6.3409   40.2274 H       1  UNL1        0.2923
     12 H          23.2821    8.5763   38.0462 H       1  UNL1        0.0655
     13 H          23.4040   11.5989   41.0979 H       1  UNL1        0.0619
     14 H          23.9391   10.8462   38.7937 H       1  UNL1        0.0619
@<TRIPOS>BOND
     1     1     2    1
     2     2     3   ar
     3     2     4   ar
     4     3     5    1
     5     3     6   ar
     6     4     7   ar
     7     6     8   ar
     8     7     8   ar
     9     1     9    1
    10     4    10    1
    11     5    11    1
    12     6    12    1
    13     7    13    1
    14     8    14    1
@<TRIPOS>SUBSTRUCTURE
     1 UNL1        1 TEMP              0 ****  ****    0 ROOT


##########                                Name:                 139
##########                DOCK_Rotatable_Bonds:                   2
##########                         Heavy_Atoms:                   8
##########                    Molecular_Weight:             110.112
##########                       Formal_Charge:        -2.98023e-08
##########                     HBond_Acceptors:                   2
##########                        HBond_Donors:                   2
##########                    Continuous_Score:          -19.894730
##########               Continuous_vdw_energy:          -18.206245
##########                Continuous_es_energy:           -1.688484
##########           Internal_energy_repulsive:            0.079680

@<TRIPOS>MOLECULE
139
 14 14 1 0 0
SMALL
GASTEIGER


@<TRIPOS>ATOM
      1 O          22.7256   10.1195   42.6922 O.3     1  UNL1       -0.5033
      2 C          22.6684    9.5935   41.4343 C.ar    1  UNL1        0.1582
      3 C          22.1070    8.3319   41.2161 C.ar    1  UNL1        0.1582
      4 C          23.2067   10.3090   40.3653 C.ar    1  UNL1       -0.0165
      5 O          21.5231    7.6460   42.2412 O.3     1  UNL1       -0.5033
      6 C          22.1108    7.7813   39.9351 C.ar    1  UNL1       -0.0165
      7 C          23.2009    9.7604   39.0838 C.ar    1  UNL1       -0.0581
      8 C          22.6580    8.4946   38.8698 C.ar    1  UNL1       -0.0581
      9 H          23.1361   11.0026   42.6511 H       1  UNL1        0.2923
     10 H          23.6431   11.2910   40.5324 H       1  UNL1        0.0655
     11 H          21.1729    6.8018   41.9023 H       1  UNL1        0.2923
     12 H          21.6755    6.7997   39.7631 H       1  UNL1        0.0655
     13 H          23.6256   10.3181   38.2527 H       1  UNL1        0.0619
     14 H          22.6556    8.0653   37.8707 H       1  UNL1        0.0619
@<TRIPOS>BOND
     1     1     2    1
     2     2     3   ar
     3     2     4   ar
     4     3     5    1
     5     3     6   ar
     6     4     7   ar
     7     6     8   ar
     8     7     8   ar
     9     1     9    1
    10     4    10    1
    11     5    11    1
    12     6    12    1
    13     7    13    1
    14     8    14    1
@<TRIPOS>SUBSTRUCTURE
     1 UNL1        1 TEMP              0 ****  ****    0 ROOT


##########                                Name:                 140
##########                DOCK_Rotatable_Bonds:                   6
##########                         Heavy_Atoms:                  13
##########                    Molecular_Weight:             192.169
##########                       Formal_Charge:         2.98023e-08
##########                     HBond_Acceptors:                   6
##########                        HBond_Donors:                   5
##########                    Continuous_Score:          -25.513058
##########               Continuous_vdw_energy:          -22.148764
##########                Continuous_es_energy:           -3.364294
##########           Internal_energy_repulsive:            4.190303

@<TRIPOS>MOLECULE
140
 25 25 1 0 0
SMALL
GASTEIGER


@<TRIPOS>ATOM
      1 O          15.4732   12.4749   40.8766 O.2     1  UNL1       -0.2478
      2 C          15.7811   13.4106   41.5851 C.2     1  UNL1        0.3369
      3 O          16.9881   13.9212   41.5474 O.3     1  UNL1       -0.4786
      4 C          14.8002   14.1491   42.5034 C.3     1  UNL1        0.1667
      5 O          14.5181   15.4285   41.9207 O.3     1  UNL1       -0.3772
      6 C          15.3907   14.4188   43.9193 C.3     1  UNL1        0.0152
      7 C          13.4619   13.3769   42.6177 C.3     1  UNL1        0.0152
      8 C          15.4921   13.1492   44.8041 C.3     1  UNL1        0.0866
      9 C          13.6127   12.0834   43.4513 C.3     1  UNL1        0.0866
     10 O          15.8836   13.5237   46.1282 O.3     1  UNL1       -0.3890
     11 C          14.1530   12.3778   44.8719 C.3     1  UNL1        0.1070
     12 O          12.3412   11.4440   43.5640 O.3     1  UNL1       -0.3890
     13 O          13.1855   13.1127   45.6420 O.3     1  UNL1       -0.3867
     14 H          17.5113   13.4237   40.8890 H       1  UNL1        0.2951
     15 H          13.9915   15.9259   42.5717 H       1  UNL1        0.2109
     16 H          14.7643   15.1540   44.4323 H       1  UNL1        0.0324
     17 H          16.3832   14.8668   43.8219 H       1  UNL1        0.0324
     18 H          13.0954   13.1250   41.6188 H       1  UNL1        0.0324
     19 H          12.7074   14.0209   43.0779 H       1  UNL1        0.0324
     20 H          16.2598   12.4849   44.3998 H       1  UNL1        0.0621
     21 H          14.3006   11.4044   42.9385 H       1  UNL1        0.0621
     22 H          16.0477   12.7058   46.6375 H       1  UNL1        0.2099
     23 H          14.3324   11.4224   45.3748 H       1  UNL1        0.0645
     24 H          12.4627   10.6545   44.1245 H       1  UNL1        0.2099
     25 H          12.3689   12.5880   45.7291 H       1  UNL1        0.2100
@<TRIPOS>BOND
     1     1     2    2
     2     2     3    1
     3     2     4    1
     4     4     5    1
     5     4     6    1
     6     4     7    1
     7     6     8    1
     8     7     9    1
     9     8    10    1
    10     8    11    1
    11     9    12    1
    12    11    13    1
    13     9    11    1
    14     3    14    1
    15     5    15    1
    16     6    16    1
    17     6    17    1
    18     7    18    1
    19     7    19    1
    20     8    20    1
    21     9    21    1
    22    10    22    1
    23    11    23    1
    24    12    24    1
    25    13    25    1
@<TRIPOS>SUBSTRUCTURE
     1 UNL1        1 TEMP              0 ****  ****    0 ROOT


##########                                Name:                 140
##########                DOCK_Rotatable_Bonds:                   6
##########                         Heavy_Atoms:                  13
##########                    Molecular_Weight:             192.169
##########                       Formal_Charge:         2.98023e-08
##########                     HBond_Acceptors:                   6
##########                        HBond_Donors:                   5
##########                    Continuous_Score:          -24.760386
##########               Continuous_vdw_energy:          -21.992655
##########                Continuous_es_energy:           -2.767730
##########           Internal_energy_repulsive:            4.269684

@<TRIPOS>MOLECULE
140
 25 25 1 0 0
SMALL
GASTEIGER


@<TRIPOS>ATOM
      1 O          15.5302   12.4925   40.8651 O.2     1  UNL1       -0.2478
      2 C          15.8040   13.3867   41.6382 C.2     1  UNL1        0.3369
      3 O          17.0228   13.8631   41.7195 O.3     1  UNL1       -0.4786
      4 C          14.7716   14.1126   42.5088 C.3     1  UNL1        0.1667
      5 O          14.4709   15.3713   41.8913 O.3     1  UNL1       -0.3772
      6 C          15.3068   14.4276   43.9373 C.3     1  UNL1        0.0152
      7 C          13.4539   13.3022   42.5954 C.3     1  UNL1        0.0152
      8 C          15.4169   13.1790   44.8508 C.3     1  UNL1        0.0866
      9 C          13.6158   12.0304   43.4598 C.3     1  UNL1        0.0866
     10 O          15.7531   13.5909   46.1788 O.3     1  UNL1       -0.3890
     11 C          14.0998   12.3686   44.8908 C.3     1  UNL1        0.1070
     12 O          12.3610   11.3548   43.5442 O.3     1  UNL1       -0.3890
     13 O          13.0860   13.0884   45.6139 O.3     1  UNL1       -0.3867
     14 H          17.6089   13.3010   41.1760 H       1  UNL1        0.2951
     15 H          13.9275   15.8741   42.5243 H       1  UNL1        0.2109
     16 H          14.6421   15.1532   44.4147 H       1  UNL1        0.0324
     17 H          16.2882   14.9037   43.8630 H       1  UNL1        0.0324
     18 H          13.1285   13.0199   41.5906 H       1  UNL1        0.0324
     19 H          12.6659   13.9316   43.0178 H       1  UNL1        0.0324
     20 H          16.2170   12.5309   44.4851 H       1  UNL1        0.0621
     21 H          14.3402   11.3629   42.9835 H       1  UNL1        0.0621
     22 H          15.8725   12.7880   46.7231 H       1  UNL1        0.2099
     23 H          14.2911   11.4291   45.4187 H       1  UNL1        0.0645
     24 H          12.4997   10.5521   44.0815 H       1  UNL1        0.2099
     25 H          13.3783   13.2327   46.5323 H       1  UNL1        0.2100
@<TRIPOS>BOND
     1     1     2    2
     2     2     3    1
     3     2     4    1
     4     4     5    1
     5     4     6    1
     6     4     7    1
     7     6     8    1
     8     7     9    1
     9     8    10    1
    10     8    11    1
    11     9    12    1
    12    11    13    1
    13     9    11    1
    14     3    14    1
    15     5    15    1
    16     6    16    1
    17     6    17    1
    18     7    18    1
    19     7    19    1
    20     8    20    1
    21     9    21    1
    22    10    22    1
    23    11    23    1
    24    12    24    1
    25    13    25    1
@<TRIPOS>SUBSTRUCTURE
     1 UNL1        1 TEMP              0 ****  ****    0 ROOT


##########                                Name:                 140
##########                DOCK_Rotatable_Bonds:                   6
##########                         Heavy_Atoms:                  13
##########                    Molecular_Weight:             192.169
##########                       Formal_Charge:         2.98023e-08
##########                     HBond_Acceptors:                   6
##########                        HBond_Donors:                   5
##########                    Continuous_Score:          -24.677372
##########               Continuous_vdw_energy:          -22.084091
##########                Continuous_es_energy:           -2.593280
##########           Internal_energy_repulsive:            4.203835

@<TRIPOS>MOLECULE
140
 25 25 1 0 0
SMALL
GASTEIGER


@<TRIPOS>ATOM
      1 O          15.5184   12.4480   40.8566 O.2     1  UNL1       -0.2478
      2 C          15.8045   13.3780   41.5815 C.2     1  UNL1        0.3369
      3 O          17.0083   13.8974   41.5745 O.3     1  UNL1       -0.4786
      4 C          14.7993   14.0995   42.4868 C.3     1  UNL1        0.1667
      5 O          14.4961   15.3702   41.8958 O.3     1  UNL1       -0.3772
      6 C          15.3701   14.3875   43.9072 C.3     1  UNL1        0.0152
      7 C          13.4765   13.2997   42.5915 C.3     1  UNL1        0.0152
      8 C          15.4896   13.1241   44.7986 C.3     1  UNL1        0.0866
      9 C          13.6463   12.0133   43.4324 C.3     1  UNL1        0.0866
     10 O          15.8599   13.5123   46.1247 O.3     1  UNL1       -0.3890
     11 C          14.1663   12.3249   44.8568 C.3     1  UNL1        0.1070
     12 O          12.3876   11.3476   43.5354 O.3     1  UNL1       -0.3890
     13 O          13.1761   13.0424   45.6141 O.3     1  UNL1       -0.3867
     14 H          16.9979   14.7040   42.1259 H       1  UNL1        0.2951
     15 H          13.8881   15.8271   42.5041 H       1  UNL1        0.2109
     16 H          14.7233   15.1116   44.4108 H       1  UNL1        0.0324
     17 H          16.3539   14.8559   43.8175 H       1  UNL1        0.0324
     18 H          13.1254   13.0359   41.5903 H       1  UNL1        0.0324
     19 H          12.7042   13.9295   43.0415 H       1  UNL1        0.0324
     20 H          16.2750   12.4744   44.4047 H       1  UNL1        0.0621
     21 H          14.3533   11.3467   42.9292 H       1  UNL1        0.0621
     22 H          16.0709   12.7021   46.6290 H       1  UNL1        0.2099
     23 H          14.3609   11.3757   45.3657 H       1  UNL1        0.0645
     24 H          12.5116   10.5838   44.1302 H       1  UNL1        0.2099
     25 H          12.3435   12.5363   45.6277 H       1  UNL1        0.2100
@<TRIPOS>BOND
     1     1     2    2
     2     2     3    1
     3     2     4    1
     4     4     5    1
     5     4     6    1
     6     4     7    1
     7     6     8    1
     8     7     9    1
     9     8    10    1
    10     8    11    1
    11     9    12    1
    12    11    13    1
    13     9    11    1
    14     3    14    1
    15     5    15    1
    16     6    16    1
    17     6    17    1
    18     7    18    1
    19     7    19    1
    20     8    20    1
    21     9    21    1
    22    10    22    1
    23    11    23    1
    24    12    24    1
    25    13    25    1
@<TRIPOS>SUBSTRUCTURE
     1 UNL1        1 TEMP              0 ****  ****    0 ROOT


##########                                Name:                 141
##########                DOCK_Rotatable_Bonds:                   5
##########                         Heavy_Atoms:                  12
##########                    Molecular_Weight:             164.161
##########                       Formal_Charge:        -6.70552e-08
##########                     HBond_Acceptors:                   3
##########                        HBond_Donors:                   2
##########                    Continuous_Score:          -24.609474
##########               Continuous_vdw_energy:          -21.835674
##########                Continuous_es_energy:           -2.773800
##########           Internal_energy_repulsive:            1.472861

@<TRIPOS>MOLECULE
141
 20 20 1 0 0
SMALL
GASTEIGER


@<TRIPOS>ATOM
      1 O          23.5635    8.9657   34.7819 O.2     1  UNL1       -0.2458
      2 C          23.7446    8.2625   35.7534 C.2     1  UNL1        0.3296
      3 O          24.2130    7.0452   35.6342 O.3     1  UNL1       -0.4775
      4 C          23.3816    8.7167   37.1199 C.2     1  UNL1        0.0229
      5 C          23.2905    8.0099   38.2583 C.2     1  UNL1       -0.0477
      6 C          22.9212    8.5290   39.5933 C.ar    1  UNL1       -0.0214
      7 C          22.1530    7.7740   40.4883 C.ar    1  UNL1       -0.0130
      8 C          23.3716    9.7946   39.9713 C.ar    1  UNL1       -0.0544
      9 C          21.8407    8.2878   41.7526 C.ar    1  UNL1        0.1174
     10 C          23.0599   10.3059   41.2282 C.ar    1  UNL1       -0.0578
     11 O          21.0984    7.5766   42.6542 O.3     1  UNL1       -0.5068
     12 C          22.2961    9.5540   42.1169 C.ar    1  UNL1       -0.0201
     13 H          24.3427    6.6590   36.5138 H       1  UNL1        0.2954
     14 H          23.1590    9.7805   37.2021 H       1  UNL1        0.0689
     15 H          23.4730    6.9367   38.2256 H       1  UNL1        0.0626
     16 H          21.8026    6.7852   40.2010 H       1  UNL1        0.0660
     17 H          23.9734   10.3866   39.2853 H       1  UNL1        0.0623
     18 H          23.4154   11.2917   41.5184 H       1  UNL1        0.0619
     19 H          20.7233    6.7652   42.2688 H       1  UNL1        0.2921
     20 H          22.0577    9.9561   43.0989 H       1  UNL1        0.0654
@<TRIPOS>BOND
     1     1     2    2
     2     2     3    1
     3     2     4    1
     4     4     5    2
     5     5     6    1
     6     6     7   ar
     7     6     8   ar
     8     7     9   ar
     9     8    10   ar
    10     9    11    1
    11     9    12   ar
    12    10    12   ar
    13     3    13    1
    14     4    14    1
    15     5    15    1
    16     7    16    1
    17     8    17    1
    18    10    18    1
    19    11    19    1
    20    12    20    1
@<TRIPOS>SUBSTRUCTURE
     1 UNL1        1 TEMP              0 ****  ****    0 ROOT


##########                                Name:                 141
##########                DOCK_Rotatable_Bonds:                   5
##########                         Heavy_Atoms:                  12
##########                    Molecular_Weight:             164.161
##########                       Formal_Charge:        -6.70552e-08
##########                     HBond_Acceptors:                   3
##########                        HBond_Donors:                   2
##########                    Continuous_Score:          -24.762745
##########               Continuous_vdw_energy:          -21.337690
##########                Continuous_es_energy:           -3.425054
##########           Internal_energy_repulsive:            1.601328

@<TRIPOS>MOLECULE
141
 20 20 1 0 0
SMALL
GASTEIGER


@<TRIPOS>ATOM
      1 O          23.8443    7.4894   35.3334 O.2     1  UNL1       -0.2458
      2 C          23.6834    8.6417   35.6767 C.2     1  UNL1        0.3296
      3 O          23.8575    9.6321   34.8376 O.3     1  UNL1       -0.4775
      4 C          23.3490    8.9950   37.0799 C.2     1  UNL1        0.0229
      5 C          23.2032    8.1963   38.1497 C.2     1  UNL1       -0.0477
      6 C          22.8672    8.6174   39.5273 C.ar    1  UNL1       -0.0214
      7 C          22.1255    7.7968   40.3861 C.ar    1  UNL1       -0.0130
      8 C          23.3231    9.8554   39.9824 C.ar    1  UNL1       -0.0544
      9 C          21.8447    8.2179   41.6914 C.ar    1  UNL1        0.1174
     10 C          23.0427   10.2746   41.2803 C.ar    1  UNL1       -0.0578
     11 O          21.1288    7.4406   42.5590 O.3     1  UNL1       -0.5068
     12 C          22.3052    9.4574   42.1328 C.ar    1  UNL1       -0.0201
     13 H          23.6396   10.4699   35.2735 H       1  UNL1        0.2954
     14 H          23.2033   10.0603   37.2589 H       1  UNL1        0.0689
     15 H          23.3080    7.1201   38.0192 H       1  UNL1        0.0626
     16 H          21.7711    6.8289   40.0384 H       1  UNL1        0.0660
     17 H          23.9046   10.4979   39.3249 H       1  UNL1        0.0623
     18 H          23.4024   11.2392   41.6304 H       1  UNL1        0.0619
     19 H          21.0547    6.5181   42.2572 H       1  UNL1        0.2921
     20 H          22.0913    9.7876   43.1467 H       1  UNL1        0.0654
@<TRIPOS>BOND
     1     1     2    2
     2     2     3    1
     3     2     4    1
     4     4     5    2
     5     5     6    1
     6     6     7   ar
     7     6     8   ar
     8     7     9   ar
     9     8    10   ar
    10     9    11    1
    11     9    12   ar
    12    10    12   ar
    13     3    13    1
    14     4    14    1
    15     5    15    1
    16     7    16    1
    17     8    17    1
    18    10    18    1
    19    11    19    1
    20    12    20    1
@<TRIPOS>SUBSTRUCTURE
     1 UNL1        1 TEMP              0 ****  ****    0 ROOT


##########                                Name:                 141
##########                DOCK_Rotatable_Bonds:                   5
##########                         Heavy_Atoms:                  12
##########                    Molecular_Weight:             164.161
##########                       Formal_Charge:        -6.70552e-08
##########                     HBond_Acceptors:                   3
##########                        HBond_Donors:                   2
##########                    Continuous_Score:          -25.009735
##########               Continuous_vdw_energy:          -21.177105
##########                Continuous_es_energy:           -3.832630
##########           Internal_energy_repulsive:            1.040912

@<TRIPOS>MOLECULE
141
 20 20 1 0 0
SMALL
GASTEIGER


@<TRIPOS>ATOM
      1 O          23.8926    8.6572   35.2433 O.2     1  UNL1       -0.2458
      2 C          24.1336    7.8285   36.0957 C.2     1  UNL1        0.3296
      3 O          24.6864    6.6807   35.7916 O.3     1  UNL1       -0.4775
      4 C          23.7534    8.0409   37.5154 C.2     1  UNL1        0.0229
      5 C          23.2602    9.1385   38.1119 C.2     1  UNL1       -0.0477
      6 C          22.9010    9.2820   39.5397 C.ar    1  UNL1       -0.0214
      7 C          22.2957    8.2401   40.2533 C.ar    1  UNL1       -0.0130
      8 C          23.1958   10.4808   40.1904 C.ar    1  UNL1       -0.0544
      9 C          21.9896    8.4027   41.6096 C.ar    1  UNL1        0.1174
     10 C          22.8902   10.6428   41.5391 C.ar    1  UNL1       -0.0578
     11 O          21.4042    7.4053   42.3391 O.3     1  UNL1       -0.5068
     12 C          22.2884    9.6060   42.2470 C.ar    1  UNL1       -0.0201
     13 H          24.6272    6.0801   36.5500 H       1  UNL1        0.2954
     14 H          23.8981    7.1741   38.1602 H       1  UNL1        0.0689
     15 H          23.1250   10.0420   37.5191 H       1  UNL1        0.0626
     16 H          22.0673    7.3018   39.7526 H       1  UNL1        0.0660
     17 H          23.6709   11.2943   39.6464 H       1  UNL1        0.0623
     18 H          23.1244   11.5782   42.0418 H       1  UNL1        0.0619
     19 H          21.4973    6.5328   41.9173 H       1  UNL1        0.2921
     20 H          22.0544    9.7359   43.3013 H       1  UNL1        0.0654
@<TRIPOS>BOND
     1     1     2    2
     2     2     3    1
     3     2     4    1
     4     4     5    2
     5     5     6    1
     6     6     7   ar
     7     6     8   ar
     8     7     9   ar
     9     8    10   ar
    10     9    11    1
    11     9    12   ar
    12    10    12   ar
    13     3    13    1
    14     4    14    1
    15     5    15    1
    16     7    16    1
    17     8    17    1
    18    10    18    1
    19    11    19    1
    20    12    20    1
@<TRIPOS>SUBSTRUCTURE
     1 UNL1        1 TEMP              0 ****  ****    0 ROOT


##########                                Name:                 142
##########                DOCK_Rotatable_Bonds:                   6
##########                         Heavy_Atoms:                  14
##########                    Molecular_Weight:             194.187
##########                       Formal_Charge:         0.000200033
##########                     HBond_Acceptors:                   4
##########                        HBond_Donors:                   2
##########                    Continuous_Score:          -26.531071
##########               Continuous_vdw_energy:          -22.372021
##########                Continuous_es_energy:           -4.159050
##########           Internal_energy_repulsive:            1.557389

@<TRIPOS>MOLECULE
142
 24 24 1 0 0
SMALL
GASTEIGER


@<TRIPOS>ATOM
      1 O          17.0199   15.7506   45.4991 O.2     1  UNL1       -0.2458
      2 C          17.2730   14.7536   44.8573 C.2     1  UNL1        0.3296
      3 O          18.5105   14.4080   44.6014 O.3     1  UNL1       -0.4775
      4 C          16.1956   13.8565   44.3645 C.2     1  UNL1        0.0229
      5 C          14.8637   14.0296   44.3580 C.2     1  UNL1       -0.0477
      6 C          13.8590   13.0722   43.8416 C.ar    1  UNL1       -0.0211
      7 C          12.8782   13.4769   42.9292 C.ar    1  UNL1       -0.0092
      8 C          13.8643   11.7568   44.3060 C.ar    1  UNL1       -0.0509
      9 C          11.9007   12.5694   42.4932 C.ar    1  UNL1        0.1618
     10 C          12.8959   10.8523   43.8732 C.ar    1  UNL1       -0.0160
     11 O          10.8938   12.9104   41.6012 O.3     1  UNL1       -0.4914
     12 C          11.9128   11.2595   42.9740 C.ar    1  UNL1        0.1585
     13 C          10.2303   14.1953   41.5940 C.3     1  UNL1        0.0790
     14 O          10.9486   10.3836   42.5674 O.3     1  UNL1       -0.5033
     15 H          18.5255   13.6925   43.9497 H       1  UNL1        0.2954
     16 H          16.5504   12.9126   43.9500 H       1  UNL1        0.0689
     17 H          14.4507   14.9563   44.7536 H       1  UNL1        0.0626
     18 H          12.8768   14.5036   42.5742 H       1  UNL1        0.0661
     19 H          14.6187   11.4335   45.0190 H       1  UNL1        0.0625
     20 H          12.9023    9.8308   44.2461 H       1  UNL1        0.0655
     21 H           9.4909   14.2035   40.7884 H       1  UNL1        0.0660
     22 H          10.9652   14.9861   41.4196 H       1  UNL1        0.0660
     23 H           9.7253   14.3524   42.5510 H       1  UNL1        0.0660
     24 H          11.3463    9.4865   42.5496 H       1  UNL1        0.2923
@<TRIPOS>BOND
     1     1     2    2
     2     2     3    1
     3     2     4    1
     4     4     5    2
     5     5     6    1
     6     6     7   ar
     7     6     8   ar
     8     7     9   ar
     9     8    10   ar
    10     9    11    1
    11     9    12   ar
    12    11    13    1
    13    12    14    1
    14    10    12   ar
    15     3    15    1
    16     4    16    1
    17     5    17    1
    18     7    18    1
    19     8    19    1
    20    10    20    1
    21    13    21    1
    22    13    22    1
    23    13    23    1
    24    14    24    1
@<TRIPOS>SUBSTRUCTURE
     1 UNL1        1 TEMP              0 ****  ****    0 ROOT


##########                                Name:                 142
##########                DOCK_Rotatable_Bonds:                   6
##########                         Heavy_Atoms:                  14
##########                    Molecular_Weight:             194.187
##########                       Formal_Charge:         0.000200033
##########                     HBond_Acceptors:                   4
##########                        HBond_Donors:                   2
##########                    Continuous_Score:          -25.795830
##########               Continuous_vdw_energy:          -22.601723
##########                Continuous_es_energy:           -3.194107
##########           Internal_energy_repulsive:            4.223746

@<TRIPOS>MOLECULE
142
 24 24 1 0 0
SMALL
GASTEIGER


@<TRIPOS>ATOM
      1 O          26.2450    8.5971   37.7421 O.2     1  UNL1       -0.2458
      2 C          25.9381    7.8931   36.8039 C.2     1  UNL1        0.3296
      3 O          26.8333    7.4930   35.9353 O.3     1  UNL1       -0.4775
      4 C          24.5421    7.4192   36.6164 C.2     1  UNL1        0.0229
      5 C          23.4153    7.7800   37.2522 C.2     1  UNL1       -0.0477
      6 C          23.3047    8.7814   38.3375 C.ar    1  UNL1       -0.0211
      7 C          22.7888    8.4335   39.5908 C.ar    1  UNL1       -0.0092
      8 C          23.6803   10.1022   38.0916 C.ar    1  UNL1       -0.0509
      9 C          22.6401    9.4083   40.5893 C.ar    1  UNL1        0.1618
     10 C          23.5359   11.0723   39.0821 C.ar    1  UNL1       -0.0160
     11 O          22.1232    9.1321   41.8471 O.3     1  UNL1       -0.4914
     12 C          23.0109   10.7274   40.3256 C.ar    1  UNL1        0.1585
     13 C          21.6329    7.8309   42.2447 C.3     1  UNL1        0.0790
     14 O          22.8450   11.6795   41.2893 O.3     1  UNL1       -0.5033
     15 H          26.4347    6.8647   35.3160 H       1  UNL1        0.2954
     16 H          24.4251    6.6581   35.8446 H       1  UNL1        0.0689
     17 H          22.4770    7.3021   36.9742 H       1  UNL1        0.0626
     18 H          22.4943    7.4042   39.7750 H       1  UNL1        0.0661
     19 H          24.0773   10.3840   37.1195 H       1  UNL1        0.0625
     20 H          23.8236   12.1013   38.8799 H       1  UNL1        0.0655
     21 H          21.2949    7.8860   43.2832 H       1  UNL1        0.0660
     22 H          22.4383    7.0957   42.1640 H       1  UNL1        0.0660
     23 H          20.7936    7.5445   41.6051 H       1  UNL1        0.0660
     24 H          22.6866   12.5371   40.8394 H       1  UNL1        0.2923
@<TRIPOS>BOND
     1     1     2    2
     2     2     3    1
     3     2     4    1
     4     4     5    2
     5     5     6    1
     6     6     7   ar
     7     6     8   ar
     8     7     9   ar
     9     8    10   ar
    10     9    11    1
    11     9    12   ar
    12    11    13    1
    13    12    14    1
    14    10    12   ar
    15     3    15    1
    16     4    16    1
    17     5    17    1
    18     7    18    1
    19     8    19    1
    20    10    20    1
    21    13    21    1
    22    13    22    1
    23    13    23    1
    24    14    24    1
@<TRIPOS>SUBSTRUCTURE
     1 UNL1        1 TEMP              0 ****  ****    0 ROOT


##########                                Name:                 142
##########                DOCK_Rotatable_Bonds:                   6
##########                         Heavy_Atoms:                  14
##########                    Molecular_Weight:             194.187
##########                       Formal_Charge:         0.000200033
##########                     HBond_Acceptors:                   4
##########                        HBond_Donors:                   2
##########                    Continuous_Score:          -25.754053
##########               Continuous_vdw_energy:          -21.850471
##########                Continuous_es_energy:           -3.903581
##########           Internal_energy_repulsive:            3.574725

@<TRIPOS>MOLECULE
142
 24 24 1 0 0
SMALL
GASTEIGER


@<TRIPOS>ATOM
      1 O          18.1159   14.4889   45.2326 O.2     1  UNL1       -0.2458
      2 C          16.9854   14.8482   44.9818 C.2     1  UNL1        0.3296
      3 O          16.6452   16.1116   45.0471 O.3     1  UNL1       -0.4775
      4 C          15.9434   13.8798   44.5515 C.2     1  UNL1        0.0229
      5 C          14.6832   14.0941   44.1393 C.2     1  UNL1       -0.0477
      6 C          13.7089   13.0579   43.7269 C.ar    1  UNL1       -0.0211
      7 C          12.6240   13.3748   42.9019 C.ar    1  UNL1       -0.0092
      8 C          13.8515   11.7549   44.2043 C.ar    1  UNL1       -0.0509
      9 C          11.6803   12.3919   42.5664 C.ar    1  UNL1        0.1618
     10 C          12.9170   10.7758   43.8711 C.ar    1  UNL1       -0.0160
     11 O          10.5758   12.6436   41.7649 O.3     1  UNL1       -0.4914
     12 C          11.8306   11.0952   43.0594 C.ar    1  UNL1        0.1585
     13 C          10.0576   13.9690   41.5069 C.3     1  UNL1        0.0790
     14 O          10.9003   10.1453   42.7516 O.3     1  UNL1       -0.5033
     15 H          17.3663   16.6280   45.4348 H       1  UNL1        0.2954
     16 H          16.2583   12.8365   44.5830 H       1  UNL1        0.0689
     17 H          14.3142   15.1171   44.0815 H       1  UNL1        0.0626
     18 H          12.5160   14.3922   42.5365 H       1  UNL1        0.0661
     19 H          14.6879   11.4995   44.8500 H       1  UNL1        0.0625
     20 H          13.0309    9.7643   44.2537 H       1  UNL1        0.0655
     21 H           9.1956   13.8845   40.8394 H       1  UNL1        0.0660
     22 H          10.8294   14.5771   41.0272 H       1  UNL1        0.0660
     23 H           9.7438   14.4293   42.4478 H       1  UNL1        0.0660
     24 H          11.3359    9.2679   42.8130 H       1  UNL1        0.2923
@<TRIPOS>BOND
     1     1     2    2
     2     2     3    1
     3     2     4    1
     4     4     5    2
     5     5     6    1
     6     6     7   ar
     7     6     8   ar
     8     7     9   ar
     9     8    10   ar
    10     9    11    1
    11     9    12   ar
    12    11    13    1
    13    12    14    1
    14    10    12   ar
    15     3    15    1
    16     4    16    1
    17     5    17    1
    18     7    18    1
    19     8    19    1
    20    10    20    1
    21    13    21    1
    22    13    22    1
    23    13    23    1
    24    14    24    1
@<TRIPOS>SUBSTRUCTURE
     1 UNL1        1 TEMP              0 ****  ****    0 ROOT


##########                                Name:                 145
##########                DOCK_Rotatable_Bonds:                   5
##########                         Heavy_Atoms:                  12
##########                    Molecular_Weight:             164.161
##########                       Formal_Charge:         0.000300109
##########                     HBond_Acceptors:                   3
##########                        HBond_Donors:                   2
##########                    Continuous_Score:          -22.764063
##########               Continuous_vdw_energy:          -21.620045
##########                Continuous_es_energy:           -1.144017
##########           Internal_energy_repulsive:            0.877395

@<TRIPOS>MOLECULE
145
 20 20 1 0 0
SMALL
GASTEIGER


@<TRIPOS>ATOM
      1 O          23.2260   13.8577   42.3603 O.2     1  UNL1       -0.2458
      2 C          23.0135   12.6744   42.5217 C.2     1  UNL1        0.3296
      3 O          22.7819   12.1786   43.7108 O.3     1  UNL1       -0.4775
      4 C          23.0392   11.7161   41.3882 C.2     1  UNL1        0.0229
      5 C          23.0578   10.3726   41.4078 C.2     1  UNL1       -0.0478
      6 C          23.0832    9.4639   40.2403 C.ar    1  UNL1       -0.0246
      7 C          22.1230    8.4574   40.1083 C.ar    1  UNL1       -0.0511
      8 C          24.0585    9.6086   39.2503 C.ar    1  UNL1       -0.0511
      9 C          22.1328    7.6088   39.0016 C.ar    1  UNL1       -0.0196
     10 C          24.0670    8.7622   38.1414 C.ar    1  UNL1       -0.0196
     11 C          23.1035    7.7626   38.0117 C.ar    1  UNL1        0.1169
     12 O          23.1137    6.9455   36.9172 O.3     1  UNL1       -0.5068
     13 H          23.0083   11.2365   43.7117 H       1  UNL1        0.2954
     14 H          23.0486   12.1800   40.4020 H       1  UNL1        0.0689
     15 H          23.0632    9.8654   42.3719 H       1  UNL1        0.0626
     16 H          21.3578    8.3311   40.8705 H       1  UNL1        0.0625
     17 H          24.8137   10.3862   39.3373 H       1  UNL1        0.0625
     18 H          21.3791    6.8308   38.9137 H       1  UNL1        0.0654
     19 H          24.8272    8.8863   37.3720 H       1  UNL1        0.0654
     20 H          24.0197    6.8308   36.5703 H       1  UNL1        0.2921
@<TRIPOS>BOND
     1     1     2    2
     2     2     3    1
     3     2     4    1
     4     4     5    2
     5     5     6    1
     6     6     7   ar
     7     6     8   ar
     8     7     9   ar
     9     8    10   ar
    10     9    11   ar
    11    11    12    1
    12    10    11   ar
    13     3    13    1
    14     4    14    1
    15     5    15    1
    16     7    16    1
    17     8    17    1
    18     9    18    1
    19    10    19    1
    20    12    20    1
@<TRIPOS>SUBSTRUCTURE
     1 UNL1        1 TEMP              0 ****  ****    0 ROOT


##########                                Name:                 145
##########                DOCK_Rotatable_Bonds:                   5
##########                         Heavy_Atoms:                  12
##########                    Molecular_Weight:             164.161
##########                       Formal_Charge:         0.000300109
##########                     HBond_Acceptors:                   3
##########                        HBond_Donors:                   2
##########                    Continuous_Score:          -24.666687
##########               Continuous_vdw_energy:          -22.101961
##########                Continuous_es_energy:           -2.564725
##########           Internal_energy_repulsive:            2.829006

@<TRIPOS>MOLECULE
145
 20 20 1 0 0
SMALL
GASTEIGER


@<TRIPOS>ATOM
      1 O          22.1156    9.4674   42.7191 O.2     1  UNL1       -0.2458
      2 C          21.7942    8.4625   42.1205 C.2     1  UNL1        0.3296
      3 O          21.1064    7.5125   42.7018 O.3     1  UNL1       -0.4775
      4 C          22.1918    8.2357   40.7084 C.2     1  UNL1        0.0229
      5 C          22.8074    9.0682   39.8518 C.2     1  UNL1       -0.0478
      6 C          23.1812    8.7870   38.4479 C.ar    1  UNL1       -0.0246
      7 C          23.1131    7.4844   37.9468 C.ar    1  UNL1       -0.0511
      8 C          23.5942    9.8207   37.6035 C.ar    1  UNL1       -0.0511
      9 C          23.4486    7.2168   36.6199 C.ar    1  UNL1       -0.0196
     10 C          23.9269    9.5542   36.2751 C.ar    1  UNL1       -0.0196
     11 C          23.8524    8.2535   35.7784 C.ar    1  UNL1        0.1169
     12 O          24.1701    8.0041   34.4737 O.3     1  UNL1       -0.5068
     13 H          20.9637    6.7917   42.0700 H       1  UNL1        0.2954
     14 H          21.9392    7.2498   40.3185 H       1  UNL1        0.0689
     15 H          23.0669   10.0696   40.1936 H       1  UNL1        0.0626
     16 H          22.7945    6.6687   38.5915 H       1  UNL1        0.0625
     17 H          23.6534   10.8403   37.9771 H       1  UNL1        0.0625
     18 H          23.3906    6.1981   36.2454 H       1  UNL1        0.0654
     19 H          24.2418   10.3671   35.6230 H       1  UNL1        0.0654
     20 H          24.5892    8.7819   34.0572 H       1  UNL1        0.2921
@<TRIPOS>BOND
     1     1     2    2
     2     2     3    1
     3     2     4    1
     4     4     5    2
     5     5     6    1
     6     6     7   ar
     7     6     8   ar
     8     7     9   ar
     9     8    10   ar
    10     9    11   ar
    11    11    12    1
    12    10    11   ar
    13     3    13    1
    14     4    14    1
    15     5    15    1
    16     7    16    1
    17     8    17    1
    18     9    18    1
    19    10    19    1
    20    12    20    1
@<TRIPOS>SUBSTRUCTURE
     1 UNL1        1 TEMP              0 ****  ****    0 ROOT


##########                                Name:                 145
##########                DOCK_Rotatable_Bonds:                   5
##########                         Heavy_Atoms:                  12
##########                    Molecular_Weight:             164.161
##########                       Formal_Charge:         0.000300109
##########                     HBond_Acceptors:                   3
##########                        HBond_Donors:                   2
##########                    Continuous_Score:          -24.189575
##########               Continuous_vdw_energy:          -23.164778
##########                Continuous_es_energy:           -1.024797
##########           Internal_energy_repulsive:            2.601018

@<TRIPOS>MOLECULE
145
 20 20 1 0 0
SMALL
GASTEIGER


@<TRIPOS>ATOM
      1 O          20.9639    8.9118   40.6505 O.2     1  UNL1       -0.2458
      2 C          21.8320    8.5930   41.4355 C.2     1  UNL1        0.3296
      3 O          21.5851    7.7839   42.4344 O.3     1  UNL1       -0.4775
      4 C          23.2124    9.1288   41.3307 C.2     1  UNL1        0.0229
      5 C          23.9681    9.3303   40.2380 C.2     1  UNL1       -0.0478
      6 C          23.5939    9.0579   38.8324 C.ar    1  UNL1       -0.0246
      7 C          22.9724    7.8548   38.4881 C.ar    1  UNL1       -0.0511
      8 C          23.8456   10.0042   37.8357 C.ar    1  UNL1       -0.0511
      9 C          22.6031    7.6002   37.1674 C.ar    1  UNL1       -0.0196
     10 C          23.4735    9.7514   36.5151 C.ar    1  UNL1       -0.0196
     11 C          22.8488    8.5515   36.1772 C.ar    1  UNL1        0.1169
     12 O          22.4788    8.3175   34.8836 O.3     1  UNL1       -0.5068
     13 H          20.6797    7.4480   42.3548 H       1  UNL1        0.2954
     14 H          23.6718    9.3891   42.2843 H       1  UNL1        0.0689
     15 H          24.9673    9.7453   40.3643 H       1  UNL1        0.0626
     16 H          22.7705    7.1078   39.2520 H       1  UNL1        0.0625
     17 H          24.3289   10.9456   38.0860 H       1  UNL1        0.0625
     18 H          22.1206    6.6595   36.9158 H       1  UNL1        0.0654
     19 H          23.6681   10.4972   35.7461 H       1  UNL1        0.0654
     20 H          22.7416    9.0570   34.3016 H       1  UNL1        0.2921
@<TRIPOS>BOND
     1     1     2    2
     2     2     3    1
     3     2     4    1
     4     4     5    2
     5     5     6    1
     6     6     7   ar
     7     6     8   ar
     8     7     9   ar
     9     8    10   ar
    10     9    11   ar
    11    11    12    1
    12    10    11   ar
    13     3    13    1
    14     4    14    1
    15     5    15    1
    16     7    16    1
    17     8    17    1
    18     9    18    1
    19    10    19    1
    20    12    20    1
@<TRIPOS>SUBSTRUCTURE
     1 UNL1        1 TEMP              0 ****  ****    0 ROOT


##########                                Name:                 146
##########                DOCK_Rotatable_Bonds:                   0
##########                         Heavy_Atoms:                  13
##########                    Molecular_Weight:             180.166
##########                       Formal_Charge:         7.45058e-09
##########                     HBond_Acceptors:                   6
##########                        HBond_Donors:                   1
##########                    Continuous_Score:          -27.415749
##########               Continuous_vdw_energy:          -26.739531
##########                Continuous_es_energy:           -0.676217
##########           Internal_energy_repulsive:            3.628102

@<TRIPOS>MOLECULE
146
 21 22 1 0 0
SMALL
GASTEIGER


@<TRIPOS>ATOM
      1 O          23.9387   10.3506   37.6071 O.2     1  UNL1       -0.2462
      2 C          23.3716    9.6541   38.4291 C.ar    1  UNL1        0.3331
      3 N          23.0199    8.3568   38.1608 N.ar    1  UNL1       -0.2622
      4 N          23.0614   10.1409   39.6673 N.ar    1  UNL1       -0.2796
      5 C          22.3869    7.5145   39.0292 C.ar    1  UNL1        0.2820
      6 C          23.3433    7.7911   36.8286 C.3     1  UNL1        0.0196
      7 C          22.4251    9.3991   40.6497 C.ar    1  UNL1        0.1676
      8 C          23.3967   11.5229   40.0541 C.3     1  UNL1        0.0181
      9 O          22.0958    6.3673   38.7430 O.2     1  UNL1       -0.2652
     10 C          22.0926    8.1106   40.3396 C.ar    1  UNL1        0.1488
     11 N          21.9440    9.0667   41.6011 N.ar    1  UNL1       -0.2179
     12 N          21.5115    7.7139   41.4965 N.ar    1  UNL1       -0.3389
     13 C          21.4518    8.6341   42.5031 C.ar    1  UNL1        0.0963
     14 H          23.8265    8.5170   36.1711 H       1  UNL1        0.0458
     15 H          22.4212    7.4518   36.3483 H       1  UNL1        0.0458
     16 H          24.0145    6.9374   36.9552 H       1  UNL1        0.0458
     17 H          23.8579   12.0763   39.2329 H       1  UNL1        0.0458
     18 H          24.0909   11.4995   40.8984 H       1  UNL1        0.0458
     19 H          22.4829   12.0415   40.3570 H       1  UNL1        0.0458
     20 H          21.1457    6.7777   41.5996 H       1  UNL1        0.1670
     21 H          21.0134    8.4120   43.4644 H       1  UNL1        0.1027
@<TRIPOS>BOND
     1     1     2    2
     2     2     3   ar
     3     2     4   ar
     4     3     5   ar
     5     3     6    1
     6     4     7   ar
     7     4     8    1
     8     5     9    2
     9     5    10   ar
    10     7    11   ar
    11    10    12   ar
    12    11    13   ar
    13     7    10   ar
    14    12    13   ar
    15     6    14    1
    16     6    15    1
    17     6    16    1
    18     8    17    1
    19     8    18    1
    20     8    19    1
    21    12    20    1
    22    13    21    1
@<TRIPOS>SUBSTRUCTURE
     1 UNL1        1 TEMP              0 ****  ****    0 ROOT


##########                                Name:                 146
##########                DOCK_Rotatable_Bonds:                   0
##########                         Heavy_Atoms:                  13
##########                    Molecular_Weight:             180.166
##########                       Formal_Charge:         7.45058e-09
##########                     HBond_Acceptors:                   6
##########                        HBond_Donors:                   1
##########                    Continuous_Score:          -27.175747
##########               Continuous_vdw_energy:          -26.531908
##########                Continuous_es_energy:           -0.643838
##########           Internal_energy_repulsive:            3.628122

@<TRIPOS>MOLECULE
146
 21 22 1 0 0
SMALL
GASTEIGER


@<TRIPOS>ATOM
      1 O          23.8166   10.3933   37.5473 O.2     1  UNL1       -0.2462
      2 C          23.2907    9.6774   38.3799 C.ar    1  UNL1        0.3331
      3 N          22.9489    8.3784   38.1069 N.ar    1  UNL1       -0.2622
      4 N          23.0186   10.1431   39.6350 N.ar    1  UNL1       -0.2796
      5 C          22.3611    7.5151   38.9862 C.ar    1  UNL1        0.2820
      6 C          23.2319    7.8352   36.7561 C.3     1  UNL1        0.0196
      7 C          22.4301    9.3787   40.6297 C.ar    1  UNL1        0.1676
      8 C          23.3469   11.5249   40.0282 C.3     1  UNL1        0.0181
      9 O          22.0770    6.3673   38.6952 O.2     1  UNL1       -0.2652
     10 C          22.1059    8.0892   40.3144 C.ar    1  UNL1        0.1488
     11 N          21.9891    9.0264   41.5935 N.ar    1  UNL1       -0.2179
     12 N          21.5736    7.6684   41.4863 N.ar    1  UNL1       -0.3389
     13 C          21.5369    8.5744   42.5067 C.ar    1  UNL1        0.0963
     14 H          23.6797    8.5770   36.0916 H       1  UNL1        0.0458
     15 H          22.2981    7.4879   36.3052 H       1  UNL1        0.0458
     16 H          23.9202    6.9905   36.8467 H       1  UNL1        0.0458
     17 H          23.7694   12.0961   39.1983 H       1  UNL1        0.0458
     18 H          24.0719   11.5013   40.8462 H       1  UNL1        0.0458
     19 H          22.4371   12.0252   40.3712 H       1  UNL1        0.0458
     20 H          21.2260    6.7255   41.5898 H       1  UNL1        0.1670
     21 H          21.1374    8.3329   43.4803 H       1  UNL1        0.1027
@<TRIPOS>BOND
     1     1     2    2
     2     2     3   ar
     3     2     4   ar
     4     3     5   ar
     5     3     6    1
     6     4     7   ar
     7     4     8    1
     8     5     9    2
     9     5    10   ar
    10     7    11   ar
    11    10    12   ar
    12    11    13   ar
    13     7    10   ar
    14    12    13   ar
    15     6    14    1
    16     6    15    1
    17     6    16    1
    18     8    17    1
    19     8    18    1
    20     8    19    1
    21    12    20    1
    22    13    21    1
@<TRIPOS>SUBSTRUCTURE
     1 UNL1        1 TEMP              0 ****  ****    0 ROOT


##########                                Name:                 146
##########                DOCK_Rotatable_Bonds:                   0
##########                         Heavy_Atoms:                  13
##########                    Molecular_Weight:             180.166
##########                       Formal_Charge:         7.45058e-09
##########                     HBond_Acceptors:                   6
##########                        HBond_Donors:                   1
##########                    Continuous_Score:          -27.342302
##########               Continuous_vdw_energy:          -26.658783
##########                Continuous_es_energy:           -0.683519
##########           Internal_energy_repulsive:            3.627862

@<TRIPOS>MOLECULE
146
 21 22 1 0 0
SMALL
GASTEIGER


@<TRIPOS>ATOM
      1 O          23.9200   10.3771   37.6295 O.2     1  UNL1       -0.2462
      2 C          23.3710    9.6535   38.4402 C.ar    1  UNL1        0.3331
      3 N          23.0626    8.3487   38.1552 N.ar    1  UNL1       -0.2622
      4 N          23.0382   10.1160   39.6818 N.ar    1  UNL1       -0.2796
      5 C          22.4523    7.4767   39.0104 C.ar    1  UNL1        0.2820
      6 C          23.4116    7.8089   36.8188 C.3     1  UNL1        0.0196
      7 C          22.4206    9.3431   40.6520 C.ar    1  UNL1        0.1676
      8 C          23.3267   11.5035   40.0862 C.3     1  UNL1        0.0181
      9 O          22.1998    6.3241   38.7096 O.2     1  UNL1       -0.2652
     10 C          22.1314    8.0481   40.3255 C.ar    1  UNL1        0.1488
     11 N          21.9449    8.9846   41.5967 N.ar    1  UNL1       -0.2179
     12 N          21.5568    7.6198   41.4745 N.ar    1  UNL1       -0.3389
     13 C          21.4618    8.5262   42.4907 C.ar    1  UNL1        0.0963
     14 H          23.8751    8.5573   36.1725 H       1  UNL1        0.0458
     15 H          22.5038    7.4456   36.3291 H       1  UNL1        0.0458
     16 H          24.1093    6.9757   36.9399 H       1  UNL1        0.0458
     17 H          23.7746   12.0808   39.2740 H       1  UNL1        0.0458
     18 H          24.0165   11.4929   40.9342 H       1  UNL1        0.0458
     19 H          22.3951   11.9891   40.3893 H       1  UNL1        0.0458
     20 H          21.2206    6.6713   41.5648 H       1  UNL1        0.1670
     21 H          21.0253    8.2792   43.4470 H       1  UNL1        0.1027
@<TRIPOS>BOND
     1     1     2    2
     2     2     3   ar
     3     2     4   ar
     4     3     5   ar
     5     3     6    1
     6     4     7   ar
     7     4     8    1
     8     5     9    2
     9     5    10   ar
    10     7    11   ar
    11    10    12   ar
    12    11    13   ar
    13     7    10   ar
    14    12    13   ar
    15     6    14    1
    16     6    15    1
    17     6    16    1
    18     8    17    1
    19     8    18    1
    20     8    19    1
    21    12    20    1
    22    13    21    1
@<TRIPOS>SUBSTRUCTURE
     1 UNL1        1 TEMP              0 ****  ****    0 ROOT


##########                                Name:                 147
##########                DOCK_Rotatable_Bonds:                  12
##########                         Heavy_Atoms:                  27
##########                    Molecular_Weight:             368.386
##########                       Formal_Charge:         0.000400066
##########                     HBond_Acceptors:                   6
##########                        HBond_Donors:                   2
##########                    Continuous_Score:          -43.443771
##########               Continuous_vdw_energy:          -41.860874
##########                Continuous_es_energy:           -1.582897
##########           Internal_energy_repulsive:            8.006420

@<TRIPOS>MOLECULE
147
 47 48 1 0 0
SMALL
GASTEIGER


@<TRIPOS>ATOM
      1 O          22.1391   15.9961   45.3520 O.2     1  UNL1       -0.2922
      2 C          22.1041   15.1605   44.4715 C.2     1  UNL1        0.1635
      3 C          20.8308   14.7651   43.8278 C.2     1  UNL1       -0.0182
      4 C          23.3388   14.3772   44.0680 C.3     1  UNL1        0.0724
      5 C          19.6027   14.8150   44.3628 C.2     1  UNL1       -0.0512
      6 C          23.4970   14.2265   42.5694 C.2     1  UNL1        0.1635
      7 C          18.3499   14.4156   43.7014 C.ar    1  UNL1       -0.0212
      8 O          23.6709   15.1940   41.8535 O.2     1  UNL1       -0.2922
      9 C          23.2888   12.8710   42.0095 C.2     1  UNL1       -0.0182
     10 C          17.2407   14.0676   44.4735 C.ar    1  UNL1       -0.0092
     11 C          18.2516   14.4387   42.3106 C.ar    1  UNL1       -0.0509
     12 C          23.4681   12.5036   40.7326 C.2     1  UNL1       -0.0512
     13 C          16.0275   13.7484   43.8563 C.ar    1  UNL1        0.1618
     14 C          17.0438   14.1203   41.6902 C.ar    1  UNL1       -0.0160
     15 C          23.2735   11.1691   40.1325 C.ar    1  UNL1       -0.0212
     16 O          14.8867   13.4130   44.5720 O.3     1  UNL1       -0.4914
     17 C          15.9371   13.7816   42.4643 C.ar    1  UNL1        0.1585
     18 C          22.4471   10.2405   40.7674 C.ar    1  UNL1       -0.0092
     19 C          23.8831   10.8403   38.9197 C.ar    1  UNL1       -0.0509
     20 C          14.4009   12.0554   44.6907 C.3     1  UNL1        0.0790
     21 O          14.7472   13.4892   41.8768 O.3     1  UNL1       -0.5033
     22 C          22.2199    8.9873   40.1892 C.ar    1  UNL1        0.1618
     23 C          23.6649    9.5902   38.3438 C.ar    1  UNL1       -0.0160
     24 O          21.3934    8.0316   40.7645 O.3     1  UNL1       -0.4914
     25 C          22.8317    8.6708   38.9761 C.ar    1  UNL1        0.1585
     26 C          21.4667    7.6595   42.1610 C.3     1  UNL1        0.0790
     27 O          22.5928    7.4539   38.4162 O.3     1  UNL1       -0.5033
     28 H          20.8947   14.3828   42.8088 H       1  UNL1        0.0653
     29 H          23.3184   13.3819   44.5181 H       1  UNL1        0.0426
     30 H          24.2191   14.8819   44.4726 H       1  UNL1        0.0426
     31 H          19.4906   15.1763   45.3853 H       1  UNL1        0.0625
     32 H          22.9506   12.1017   42.7035 H       1  UNL1        0.0653
     33 H          17.3347   14.0606   45.5562 H       1  UNL1        0.0661
     34 H          19.1102   14.7205   41.7050 H       1  UNL1        0.0625
     35 H          23.7785   13.2700   40.0229 H       1  UNL1        0.0625
     36 H          16.9632   14.1498   40.6071 H       1  UNL1        0.0655
     37 H          21.9785   10.5106   41.7099 H       1  UNL1        0.0661
     38 H          24.5259   11.5586   38.4166 H       1  UNL1        0.0625
     39 H          13.4957   12.0556   45.3057 H       1  UNL1        0.0660
     40 H          15.1640   11.4340   45.1681 H       1  UNL1        0.0660
     41 H          14.1647   11.6632   43.6971 H       1  UNL1        0.0660
     42 H          14.8424   13.7576   40.9399 H       1  UNL1        0.2923
     43 H          24.1374    9.3369   37.3974 H       1  UNL1        0.0655
     44 H          20.7001    6.9077   42.3674 H       1  UNL1        0.0660
     45 H          21.2880    8.5403   42.7839 H       1  UNL1        0.0660
     46 H          22.4537    7.2406   42.3760 H       1  UNL1        0.0660
     47 H          23.4459    6.9725   38.4433 H       1  UNL1        0.2923
@<TRIPOS>BOND
     1     1     2    2
     2     2     3    1
     3     2     4    1
     4     3     5    2
     5     4     6    1
     6     5     7    1
     7     6     8    2
     8     6     9    1
     9     7    10   ar
    10     7    11   ar
    11     9    12    2
    12    10    13   ar
    13    11    14   ar
    14    12    15    1
    15    13    16    1
    16    13    17   ar
    17    15    18   ar
    18    15    19   ar
    19    16    20    1
    20    17    21    1
    21    18    22   ar
    22    19    23   ar
    23    22    24    1
    24    22    25   ar
    25    24    26    1
    26    25    27    1
    27    14    17   ar
    28    23    25   ar
    29     3    28    1
    30     4    29    1
    31     4    30    1
    32     5    31    1
    33     9    32    1
    34    10    33    1
    35    11    34    1
    36    12    35    1
    37    14    36    1
    38    18    37    1
    39    19    38    1
    40    20    39    1
    41    20    40    1
    42    20    41    1
    43    21    42    1
    44    23    43    1
    45    26    44    1
    46    26    45    1
    47    26    46    1
    48    27    47    1
@<TRIPOS>SUBSTRUCTURE
     1 UNL1        1 TEMP              0 ****  ****    0 ROOT


##########                                Name:                 147
##########                DOCK_Rotatable_Bonds:                  12
##########                         Heavy_Atoms:                  27
##########                    Molecular_Weight:             368.386
##########                       Formal_Charge:         0.000400066
##########                     HBond_Acceptors:                   6
##########                        HBond_Donors:                   2
##########                    Continuous_Score:          -43.525341
##########               Continuous_vdw_energy:          -41.371258
##########                Continuous_es_energy:           -2.154082
##########           Internal_energy_repulsive:            7.542642

@<TRIPOS>MOLECULE
147
 47 48 1 0 0
SMALL
GASTEIGER


@<TRIPOS>ATOM
      1 O          22.2464   16.3159   44.7237 O.2     1  UNL1       -0.2922
      2 C          22.2924   15.4045   43.9224 C.2     1  UNL1        0.1635
      3 C          21.0630   14.8274   43.3331 C.2     1  UNL1       -0.0182
      4 C          23.5982   14.7148   43.5752 C.3     1  UNL1        0.0724
      5 C          19.8103   14.9451   43.7957 C.2     1  UNL1       -0.0512
      6 C          23.7455   14.4054   42.1001 C.2     1  UNL1        0.1635
      7 C          18.6021   14.3609   43.1909 C.ar    1  UNL1       -0.0212
      8 O          23.9548   15.2869   41.2889 O.2     1  UNL1       -0.2922
      9 C          23.4828   13.0088   41.6819 C.2     1  UNL1       -0.0182
     10 C          17.5264   14.0015   44.0039 C.ar    1  UNL1       -0.0092
     11 C          18.5080   14.2189   41.8069 C.ar    1  UNL1       -0.0509
     12 C          23.6422   12.5062   40.4492 C.2     1  UNL1       -0.0512
     13 C          16.3503   13.5052   43.4338 C.ar    1  UNL1        0.1618
     14 C          17.3371   13.7237   41.2334 C.ar    1  UNL1       -0.0160
     15 C          23.3936   11.1260   39.9888 C.ar    1  UNL1       -0.0212
     16 O          15.2420   13.1489   44.1896 O.3     1  UNL1       -0.4914
     17 C          16.2629   13.3739   42.0476 C.ar    1  UNL1        0.1585
     18 C          22.4999   10.3149   40.6898 C.ar    1  UNL1       -0.0092
     19 C          24.0204   10.6369   38.8405 C.ar    1  UNL1       -0.0509
     20 C          14.8845   11.7745   44.4656 C.3     1  UNL1        0.0790
     21 O          15.1073   12.9096   41.5037 O.3     1  UNL1       -0.5033
     22 C          22.2224    9.0193   40.2414 C.ar    1  UNL1        0.1618
     23 C          23.7521    9.3443   38.3943 C.ar    1  UNL1       -0.0160
     24 O          21.3289    8.1748   40.8860 O.3     1  UNL1       -0.4914
     25 C          22.8520    8.5423   39.0915 C.ar    1  UNL1        0.1585
     26 C          21.4866    7.7583   42.2629 C.3     1  UNL1        0.0790
     27 O          22.5646    7.2854   38.6570 O.3     1  UNL1       -0.5033
     28 H          21.1857   14.2334   42.4273 H       1  UNL1        0.0653
     29 H          23.6944   13.7835   44.1380 H       1  UNL1        0.0426
     30 H          24.4249   15.3549   43.8918 H       1  UNL1        0.0426
     31 H          19.6399   15.5176   44.7077 H       1  UNL1        0.0625
     32 H          23.1185   12.3282   42.4511 H       1  UNL1        0.0653
     33 H          17.6162   14.1244   45.0800 H       1  UNL1        0.0661
     34 H          19.3396   14.5086   41.1682 H       1  UNL1        0.0625
     35 H          23.9786   13.1836   39.6646 H       1  UNL1        0.0625
     36 H          17.2587   13.6242   40.1544 H       1  UNL1        0.0655
     37 H          22.0187   10.7091   41.5809 H       1  UNL1        0.0661
     38 H          24.7158   11.2629   38.2865 H       1  UNL1        0.0625
     39 H          13.9802   11.7606   45.0816 H       1  UNL1        0.0660
     40 H          15.6999   11.2860   45.0069 H       1  UNL1        0.0660
     41 H          14.6912   11.2507   43.5249 H       1  UNL1        0.0660
     42 H          14.5300   12.6854   42.2621 H       1  UNL1        0.2923
     43 H          24.2382    8.9660   37.4977 H       1  UNL1        0.0655
     44 H          20.6445    7.1171   42.5370 H       1  UNL1        0.0660
     45 H          21.4989    8.6383   42.9120 H       1  UNL1        0.0660
     46 H          22.4197    7.1983   42.3705 H       1  UNL1        0.0660
     47 H          23.4270    6.8317   38.5538 H       1  UNL1        0.2923
@<TRIPOS>BOND
     1     1     2    2
     2     2     3    1
     3     2     4    1
     4     3     5    2
     5     4     6    1
     6     5     7    1
     7     6     8    2
     8     6     9    1
     9     7    10   ar
    10     7    11   ar
    11     9    12    2
    12    10    13   ar
    13    11    14   ar
    14    12    15    1
    15    13    16    1
    16    13    17   ar
    17    15    18   ar
    18    15    19   ar
    19    16    20    1
    20    17    21    1
    21    18    22   ar
    22    19    23   ar
    23    22    24    1
    24    22    25   ar
    25    24    26    1
    26    25    27    1
    27    14    17   ar
    28    23    25   ar
    29     3    28    1
    30     4    29    1
    31     4    30    1
    32     5    31    1
    33     9    32    1
    34    10    33    1
    35    11    34    1
    36    12    35    1
    37    14    36    1
    38    18    37    1
    39    19    38    1
    40    20    39    1
    41    20    40    1
    42    20    41    1
    43    21    42    1
    44    23    43    1
    45    26    44    1
    46    26    45    1
    47    26    46    1
    48    27    47    1
@<TRIPOS>SUBSTRUCTURE
     1 UNL1        1 TEMP              0 ****  ****    0 ROOT


##########                                Name:                 147
##########                DOCK_Rotatable_Bonds:                  12
##########                         Heavy_Atoms:                  27
##########                    Molecular_Weight:             368.386
##########                       Formal_Charge:         0.000400066
##########                     HBond_Acceptors:                   6
##########                        HBond_Donors:                   2
##########                    Continuous_Score:          -42.413380
##########               Continuous_vdw_energy:          -41.109283
##########                Continuous_es_energy:           -1.304095
##########           Internal_energy_repulsive:            5.524269

@<TRIPOS>MOLECULE
147
 47 48 1 0 0
SMALL
GASTEIGER


@<TRIPOS>ATOM
      1 O          21.4963   14.3114   45.5684 O.2     1  UNL1       -0.2922
      2 C          20.9413   14.4877   44.5027 C.2     1  UNL1        0.1635
      3 C          19.4668   14.5754   44.4015 C.2     1  UNL1       -0.0182
      4 C          21.7116   14.4979   43.1960 C.3     1  UNL1        0.0724
      5 C          18.6928   15.6191   44.7311 C.2     1  UNL1       -0.0512
      6 C          22.8554   13.5062   43.1598 C.2     1  UNL1        0.1635
      7 C          17.2263   15.6823   44.6212 C.ar    1  UNL1       -0.0212
      8 O          23.8133   13.6215   43.9001 O.2     1  UNL1       -0.2922
      9 C          22.8163   12.4813   42.0910 C.2     1  UNL1       -0.0182
     10 C          16.4619   14.5498   44.9054 C.ar    1  UNL1       -0.0092
     11 C          16.5979   16.8823   44.2901 C.ar    1  UNL1       -0.0509
     12 C          22.8037   11.1521   42.2662 C.2     1  UNL1       -0.0512
     13 C          15.0661   14.6166   44.8659 C.ar    1  UNL1        0.1618
     14 C          15.2058   16.9538   44.2487 C.ar    1  UNL1       -0.0160
     15 C          22.7651   10.0974   41.2341 C.ar    1  UNL1       -0.0212
     16 O          14.2541   13.5291   45.1565 O.3     1  UNL1       -0.4914
     17 C          14.4464   15.8237   44.5409 C.ar    1  UNL1        0.1585
     18 C          23.3828   10.3148   40.0016 C.ar    1  UNL1       -0.0092
     19 C          22.1440    8.8734   41.4928 C.ar    1  UNL1       -0.0509
     20 C          14.4787   12.2087   44.6098 C.3     1  UNL1        0.0790
     21 O          13.0888   15.8815   44.5257 O.3     1  UNL1       -0.5033
     22 C          23.3908    9.3089   39.0295 C.ar    1  UNL1        0.1618
     23 C          22.1436    7.8712   40.5245 C.ar    1  UNL1       -0.0160
     24 O          24.0053    9.4610   37.7941 O.3     1  UNL1       -0.4914
     25 C          22.7700    8.0892   39.2998 C.ar    1  UNL1        0.1585
     26 C          24.7042   10.6657   37.4010 C.3     1  UNL1        0.0790
     27 O          22.7954    7.1133   38.3521 O.3     1  UNL1       -0.5033
     28 H          18.9479   13.6935   44.0255 H       1  UNL1        0.0653
     29 H          22.1095   15.4964   43.0003 H       1  UNL1        0.0426
     30 H          21.0183   14.2759   42.3815 H       1  UNL1        0.0426
     31 H          19.1656   16.5185   45.1260 H       1  UNL1        0.0625
     32 H          22.8035   12.8458   41.0641 H       1  UNL1        0.0653
     33 H          16.9692   13.6249   45.1669 H       1  UNL1        0.0661
     34 H          17.1892   17.7708   44.0791 H       1  UNL1        0.0625
     35 H          22.8450   10.7744   43.2875 H       1  UNL1        0.0625
     36 H          14.7154   17.8916   44.0026 H       1  UNL1        0.0655
     37 H          23.8630   11.2715   39.8147 H       1  UNL1        0.0661
     38 H          21.6631    8.6942   42.4513 H       1  UNL1        0.0625
     39 H          13.7097   11.5311   44.9932 H       1  UNL1        0.0660
     40 H          15.4653   11.8487   44.9161 H       1  UNL1        0.0660
     41 H          14.4159   12.2491   43.5184 H       1  UNL1        0.0660
     42 H          12.8221   16.0660   45.4497 H       1  UNL1        0.2923
     43 H          21.6629    6.9171   40.7287 H       1  UNL1        0.0655
     44 H          25.1147   10.5247   36.3974 H       1  UNL1        0.0660
     45 H          25.5201   10.8605   38.1025 H       1  UNL1        0.0660
     46 H          24.0057   11.5070   37.3929 H       1  UNL1        0.0660
     47 H          23.4600    7.3973   37.6903 H       1  UNL1        0.2923
@<TRIPOS>BOND
     1     1     2    2
     2     2     3    1
     3     2     4    1
     4     3     5    2
     5     4     6    1
     6     5     7    1
     7     6     8    2
     8     6     9    1
     9     7    10   ar
    10     7    11   ar
    11     9    12    2
    12    10    13   ar
    13    11    14   ar
    14    12    15    1
    15    13    16    1
    16    13    17   ar
    17    15    18   ar
    18    15    19   ar
    19    16    20    1
    20    17    21    1
    21    18    22   ar
    22    19    23   ar
    23    22    24    1
    24    22    25   ar
    25    24    26    1
    26    25    27    1
    27    14    17   ar
    28    23    25   ar
    29     3    28    1
    30     4    29    1
    31     4    30    1
    32     5    31    1
    33     9    32    1
    34    10    33    1
    35    11    34    1
    36    12    35    1
    37    14    36    1
    38    18    37    1
    39    19    38    1
    40    20    39    1
    41    20    40    1
    42    20    41    1
    43    21    42    1
    44    23    43    1
    45    26    44    1
    46    26    45    1
    47    26    46    1
    48    27    47    1
@<TRIPOS>SUBSTRUCTURE
     1 UNL1        1 TEMP              0 ****  ****    0 ROOT


##########                                Name:                 148
##########                DOCK_Rotatable_Bonds:                  12
##########                         Heavy_Atoms:                  33
##########                    Molecular_Weight:             464.382
##########                       Formal_Charge:         9.98974e-05
##########                     HBond_Acceptors:                  12
##########                        HBond_Donors:                   8
##########                    Continuous_Score:          -42.788132
##########               Continuous_vdw_energy:          -38.970173
##########                Continuous_es_energy:           -3.817960
##########           Internal_energy_repulsive:           12.948855

@<TRIPOS>MOLECULE
148
 53 56 1 0 0
SMALL
GASTEIGER


@<TRIPOS>ATOM
      1 O          10.8021   10.9961   42.9485 O.2     1  UNL1       -0.2830
      2 C          11.2650   12.1142   42.8224 C.ar    1  UNL1        0.2382
      3 C          10.5281   13.3054   42.2898 C.ar    1  UNL1        0.2138
      4 C          12.6289   12.4397   43.2697 C.ar    1  UNL1        0.1092
      5 O           9.1651   13.2637   42.0083 O.3     1  UNL1       -0.4532
      6 C          11.0455   14.3095   42.2261 C.ar    1  UNL1        0.1810
      7 C          13.0076   13.7519   43.1101 C.ar    1  UNL1        0.1465
      8 C          13.5511   11.5364   43.9210 C.ar    1  UNL1        0.1348
      9 C           8.1974   12.5766   42.8610 C.3     1  UNL1        0.2311
     10 O          12.0841   14.6164   42.5440 O.2     1  UNL1       -0.4507
     11 C          10.7482   15.7611   41.9389 C.ar    1  UNL1        0.0247
     12 C          14.2598   14.2153   43.6660 C.ar    1  UNL1        0.0231
     13 O          13.2022   10.2276   44.0568 O.3     1  UNL1       -0.5058
     14 C          14.7551   11.9895   44.4489 C.ar    1  UNL1        0.0223
     15 O           7.0039   12.2111   42.1236 O.3     1  UNL1       -0.3313
     16 C           7.7955   13.4617   44.0516 C.3     1  UNL1        0.1454
     17 C          10.8747   16.7333   42.9516 C.ar    1  UNL1       -0.0057
     18 C          10.3680   16.1782   40.6466 C.ar    1  UNL1       -0.0473
     19 C          15.1095   13.3292   44.3334 C.ar    1  UNL1        0.1239
     20 C           6.2425   13.3141   41.5675 C.3     1  UNL1        0.1140
     21 O           8.9718   13.8700   44.7479 O.3     1  UNL1       -0.3829
     22 C           7.0128   14.6927   43.5615 C.3     1  UNL1        0.1152
     23 C          10.6942   18.0835   42.6544 C.ar    1  UNL1        0.1589
     24 C          10.1816   17.5338   40.3668 C.ar    1  UNL1       -0.0159
     25 O          16.2883   13.7431   44.8861 O.3     1  UNL1       -0.5065
     26 C           5.7880   14.2736   42.7045 C.3     1  UNL1        0.1120
     27 C           5.0779   12.7090   40.7543 C.3     1  UNL1        0.0731
     28 O           6.6042   15.4495   44.6993 O.3     1  UNL1       -0.3864
     29 O          10.8547   19.0352   43.6161 O.3     1  UNL1       -0.5033
     30 C          10.3673   18.4862   41.3660 C.ar    1  UNL1        0.1583
     31 O           4.7515   13.6919   43.5179 O.3     1  UNL1       -0.3865
     32 O           4.4276   13.7152   39.9772 O.3     1  UNL1       -0.3924
     33 O          10.2555   19.8214   41.1111 O.3     1  UNL1       -0.5033
     34 H           8.6520   11.6662   43.2738 H       1  UNL1        0.1084
     35 H          14.5236   15.2654   43.5647 H       1  UNL1        0.0691
     36 H          14.0339    9.7284   44.2243 H       1  UNL1        0.2922
     37 H          15.4173   11.2947   44.9618 H       1  UNL1        0.0691
     38 H           7.1683   12.8778   44.7312 H       1  UNL1        0.0683
     39 H          11.1547   16.4369   43.9593 H       1  UNL1        0.0662
     40 H          10.2477   15.4513   39.8470 H       1  UNL1        0.0626
     41 H           6.8938   13.8636   40.8807 H       1  UNL1        0.0647
     42 H           8.6700   14.3738   45.5207 H       1  UNL1        0.2102
     43 H           7.6702   15.3111   42.9433 H       1  UNL1        0.0648
     44 H           9.9135   17.8482   39.3611 H       1  UNL1        0.0655
     45 H          16.9729   13.0562   44.8320 H       1  UNL1        0.2921
     46 H           5.3781   15.1745   42.2390 H       1  UNL1        0.0647
     47 H           4.3531   12.2365   41.4233 H       1  UNL1        0.0584
     48 H           5.4753   11.9441   40.0817 H       1  UNL1        0.0584
     49 H           6.2539   16.2859   44.3691 H       1  UNL1        0.2100
     50 H          10.4501   19.8566   43.3071 H       1  UNL1        0.2923
     51 H           5.1005   12.9546   44.0520 H       1  UNL1        0.2100
     52 H           5.0739   14.0580   39.3320 H       1  UNL1        0.2095
     53 H          10.0064   19.9093   40.1604 H       1  UNL1        0.2923
@<TRIPOS>BOND
     1     1     2    2
     2     2     3   ar
     3     2     4   ar
     4     3     5    1
     5     3     6   ar
     6     4     7   ar
     7     4     8   ar
     8     5     9    1
     9     6    10   ar
    10     6    11    1
    11     7    12   ar
    12     8    13    1
    13     8    14   ar
    14     9    15    1
    15     9    16    1
    16    11    17   ar
    17    11    18   ar
    18    12    19   ar
    19    15    20    1
    20    16    21    1
    21    16    22    1
    22    17    23   ar
    23    18    24   ar
    24    19    25    1
    25    20    26    1
    26    20    27    1
    27    22    28    1
    28    23    29    1
    29    23    30   ar
    30    26    31    1
    31    27    32    1
    32    30    33    1
    33     7    10   ar
    34    14    19   ar
    35    22    26    1
    36    24    30   ar
    37     9    34    1
    38    12    35    1
    39    13    36    1
    40    14    37    1
    41    16    38    1
    42    17    39    1
    43    18    40    1
    44    20    41    1
    45    21    42    1
    46    22    43    1
    47    24    44    1
    48    25    45    1
    49    26    46    1
    50    27    47    1
    51    27    48    1
    52    28    49    1
    53    29    50    1
    54    31    51    1
    55    32    52    1
    56    33    53    1
@<TRIPOS>SUBSTRUCTURE
     1 UNL1        1 TEMP              0 ****  ****    0 ROOT


##########                                Name:                 148
##########                DOCK_Rotatable_Bonds:                  12
##########                         Heavy_Atoms:                  33
##########                    Molecular_Weight:             464.382
##########                       Formal_Charge:         9.98974e-05
##########                     HBond_Acceptors:                  12
##########                        HBond_Donors:                   8
##########                    Continuous_Score:          -42.243092
##########               Continuous_vdw_energy:          -38.748425
##########                Continuous_es_energy:           -3.494667
##########           Internal_energy_repulsive:           12.540401

@<TRIPOS>MOLECULE
148
 53 56 1 0 0
SMALL
GASTEIGER


@<TRIPOS>ATOM
      1 O          10.7519   11.0000   42.9141 O.2     1  UNL1       -0.2830
      2 C          11.2139   12.1228   42.8328 C.ar    1  UNL1        0.2382
      3 C          10.4822   13.3299   42.3301 C.ar    1  UNL1        0.2138
      4 C          12.5703   12.4354   43.3110 C.ar    1  UNL1        0.1092
      5 O           9.1235   13.2953   42.0273 O.3     1  UNL1       -0.4532
      6 C          10.9980   14.3366   42.3082 C.ar    1  UNL1        0.1810
      7 C          12.9482   13.7530   43.2017 C.ar    1  UNL1        0.1465
      8 C          13.4850   11.5121   43.9448 C.ar    1  UNL1        0.1348
      9 C           8.1425   12.5922   42.8513 C.3     1  UNL1        0.2311
     10 O          12.0310   14.6345   42.6517 O.2     1  UNL1       -0.4507
     11 C          10.7016   15.7965   42.0661 C.ar    1  UNL1        0.0247
     12 C          14.1910   14.1995   43.7914 C.ar    1  UNL1        0.0231
     13 O          13.1372   10.1989   44.0310 O.3     1  UNL1       -0.5058
     14 C          14.6800   11.9493   44.5055 C.ar    1  UNL1        0.0223
     15 O           6.9565   12.2504   42.0908 O.3     1  UNL1       -0.3313
     16 C           7.7301   13.4498   44.0583 C.3     1  UNL1        0.1454
     17 C          10.4269   16.2669   40.7660 C.ar    1  UNL1       -0.0057
     18 C          10.6635   16.7129   43.1373 C.ar    1  UNL1       -0.0473
     19 C          15.0328   13.2928   44.4409 C.ar    1  UNL1        0.1239
     20 C           6.2068   13.3702   41.5528 C.3     1  UNL1        0.1140
     21 O           8.8997   13.8355   44.7784 O.3     1  UNL1       -0.3829
     22 C           6.9589   14.6960   43.5891 C.3     1  UNL1        0.1152
     23 C          10.0577   17.5961   40.5643 C.ar    1  UNL1        0.1589
     24 C          10.3009   18.0436   42.9177 C.ar    1  UNL1       -0.0159
     25 O          16.2025   13.6899   45.0247 O.3     1  UNL1       -0.5065
     26 C           5.7428   14.3038   42.7074 C.3     1  UNL1        0.1120
     27 C           5.0493   12.7906   40.7111 C.3     1  UNL1        0.0731
     28 O           6.5398   15.4268   44.7400 O.3     1  UNL1       -0.3864
     29 O           9.7497   18.0512   39.3175 O.3     1  UNL1       -0.5033
     30 C           9.9766   18.4775   41.6346 C.ar    1  UNL1        0.1583
     31 O           4.6939   13.7072   43.4939 O.3     1  UNL1       -0.3865
     32 O           4.3911   13.8240   39.9777 O.3     1  UNL1       -0.3924
     33 O           9.5576   19.7533   41.3956 O.3     1  UNL1       -0.5033
     34 H           8.5881   11.6699   43.2471 H       1  UNL1        0.1084
     35 H          14.4538   15.2529   43.7297 H       1  UNL1        0.0691
     36 H          13.0142   10.0003   44.9872 H       1  UNL1        0.2922
     37 H          15.3363   11.2386   45.0042 H       1  UNL1        0.0691
     38 H           7.0921   12.8524   44.7158 H       1  UNL1        0.0683
     39 H          10.4615   15.5838   39.9211 H       1  UNL1        0.0662
     40 H          10.8846   16.3848   44.1501 H       1  UNL1        0.0626
     41 H           6.8686   13.9333   40.8875 H       1  UNL1        0.0647
     42 H           9.2859   13.0171   45.1292 H       1  UNL1        0.2102
     43 H           7.6264   15.3262   42.9941 H       1  UNL1        0.0648
     44 H          10.2494   18.7369   43.7536 H       1  UNL1        0.0655
     45 H          16.8242   12.9505   45.1262 H       1  UNL1        0.2921
     46 H           5.3424   15.2177   42.2592 H       1  UNL1        0.0647
     47 H           4.3279   12.2824   41.3570 H       1  UNL1        0.0584
     48 H           5.4554   12.0599   40.0064 H       1  UNL1        0.0584
     49 H           6.0573   16.1995   44.4218 H       1  UNL1        0.2100
     50 H           9.6677   19.0134   39.3523 H       1  UNL1        0.2923
     51 H           3.9094   13.5223   42.9452 H       1  UNL1        0.2100
     52 H           5.0553   14.2555   39.4085 H       1  UNL1        0.2095
     53 H           9.5341   20.2129   42.2684 H       1  UNL1        0.2923
@<TRIPOS>BOND
     1     1     2    2
     2     2     3   ar
     3     2     4   ar
     4     3     5    1
     5     3     6   ar
     6     4     7   ar
     7     4     8   ar
     8     5     9    1
     9     6    10   ar
    10     6    11    1
    11     7    12   ar
    12     8    13    1
    13     8    14   ar
    14     9    15    1
    15     9    16    1
    16    11    17   ar
    17    11    18   ar
    18    12    19   ar
    19    15    20    1
    20    16    21    1
    21    16    22    1
    22    17    23   ar
    23    18    24   ar
    24    19    25    1
    25    20    26    1
    26    20    27    1
    27    22    28    1
    28    23    29    1
    29    23    30   ar
    30    26    31    1
    31    27    32    1
    32    30    33    1
    33     7    10   ar
    34    14    19   ar
    35    22    26    1
    36    24    30   ar
    37     9    34    1
    38    12    35    1
    39    13    36    1
    40    14    37    1
    41    16    38    1
    42    17    39    1
    43    18    40    1
    44    20    41    1
    45    21    42    1
    46    22    43    1
    47    24    44    1
    48    25    45    1
    49    26    46    1
    50    27    47    1
    51    27    48    1
    52    28    49    1
    53    29    50    1
    54    31    51    1
    55    32    52    1
    56    33    53    1
@<TRIPOS>SUBSTRUCTURE
     1 UNL1        1 TEMP              0 ****  ****    0 ROOT


##########                                Name:                 148
##########                DOCK_Rotatable_Bonds:                  12
##########                         Heavy_Atoms:                  33
##########                    Molecular_Weight:             464.382
##########                       Formal_Charge:         9.98974e-05
##########                     HBond_Acceptors:                  12
##########                        HBond_Donors:                   8
##########                    Continuous_Score:          -39.378029
##########               Continuous_vdw_energy:          -34.918701
##########                Continuous_es_energy:           -4.459327
##########           Internal_energy_repulsive:           11.473335

@<TRIPOS>MOLECULE
148
 53 56 1 0 0
SMALL
GASTEIGER


@<TRIPOS>ATOM
      1 O          11.3059   11.2058   43.0811 O.2     1  UNL1       -0.2830
      2 C          11.7456   12.3317   42.9426 C.ar    1  UNL1        0.2382
      3 C          10.9853   13.5008   42.3946 C.ar    1  UNL1        0.2138
      4 C          13.1015   12.6908   43.3885 C.ar    1  UNL1        0.1092
      5 O           9.6240   13.4274   42.1110 O.3     1  UNL1       -0.4532
      6 C          11.4817   14.5147   42.3200 C.ar    1  UNL1        0.1810
      7 C          13.4532   14.0087   43.2142 C.ar    1  UNL1        0.1465
      8 C          14.0410   11.8148   44.0522 C.ar    1  UNL1        0.1348
      9 C           8.6524   12.8289   43.0240 C.3     1  UNL1        0.2311
     10 O          12.5130   14.8471   42.6362 O.2     1  UNL1       -0.4507
     11 C          11.1549   15.9563   42.0151 C.ar    1  UNL1        0.0247
     12 C          14.6942   14.5047   43.7668 C.ar    1  UNL1        0.0231
     13 O          13.7192   10.5006   44.2029 O.3     1  UNL1       -0.5058
     14 C          15.2342   12.2991   44.5770 C.ar    1  UNL1        0.0223
     15 O           7.5201   12.2756   42.3075 O.3     1  UNL1       -0.3313
     16 C           8.1424   13.8685   44.0348 C.3     1  UNL1        0.1454
     17 C          11.2367   16.9391   43.0222 C.ar    1  UNL1       -0.0057
     18 C          10.7912   16.3541   40.7119 C.ar    1  UNL1       -0.0473
     19 C          15.5607   13.6443   44.4464 C.ar    1  UNL1        0.1239
     20 C           6.7296   13.2246   41.5460 C.3     1  UNL1        0.1140
     21 O           9.2574   14.4563   44.7029 O.3     1  UNL1       -0.3829
     22 C           7.3203   14.9529   43.3162 C.3     1  UNL1        0.1152
     23 C          11.0292   18.2820   42.7105 C.ar    1  UNL1        0.1589
     24 C          10.5774   17.7025   40.4175 C.ar    1  UNL1       -0.0159
     25 O          16.7296   14.0893   44.9963 O.3     1  UNL1       -0.5065
     26 C           6.1658   14.3256   42.4895 C.3     1  UNL1        0.1120
     27 C           5.6427   12.4249   40.7956 C.3     1  UNL1        0.0731
     28 O           6.8132   15.8572   44.2958 O.3     1  UNL1       -0.3864
     29 O          11.1465   19.2447   43.6676 O.3     1  UNL1       -0.5033
     30 C          10.7190   18.6667   41.4125 C.ar    1  UNL1        0.1583
     31 O           5.1219   13.8201   43.3436 O.3     1  UNL1       -0.3865
     32 O           6.2095   11.2836   40.1511 O.3     1  UNL1       -0.3924
     33 O          10.5797   19.9968   41.1446 O.3     1  UNL1       -0.5033
     34 H           9.1341   12.0273   43.5996 H       1  UNL1        0.1084
     35 H          14.9364   15.5587   43.6537 H       1  UNL1        0.0691
     36 H          14.5157   10.0539   44.5703 H       1  UNL1        0.2922
     37 H          15.9096   11.6242   45.0993 H       1  UNL1        0.0691
     38 H           7.5137   13.3645   44.7743 H       1  UNL1        0.0683
     39 H          11.5031   16.6573   44.0377 H       1  UNL1        0.0662
     40 H          10.7051   15.6184   39.9160 H       1  UNL1        0.0626
     41 H           7.3844   13.6950   40.8060 H       1  UNL1        0.0647
     42 H           8.8925   15.1191   45.3106 H       1  UNL1        0.2102
     43 H           7.9741   15.5026   42.6328 H       1  UNL1        0.0648
     44 H          10.3223   18.0026   39.4041 H       1  UNL1        0.0655
     45 H          17.4137   13.3998   44.9963 H       1  UNL1        0.2921
     46 H           5.7320   15.1120   41.8653 H       1  UNL1        0.0647
     47 H           5.1499   13.0586   40.0530 H       1  UNL1        0.0584
     48 H           4.8909   12.0884   41.5146 H       1  UNL1        0.0584
     49 H           6.3879   16.5796   43.8178 H       1  UNL1        0.2100
     50 H          11.0403   20.1093   43.2494 H       1  UNL1        0.2923
     51 H           5.4415   13.0690   43.8769 H       1  UNL1        0.2100
     52 H           5.4861   10.7996   39.7107 H       1  UNL1        0.2095
     53 H          10.3565   20.0719   40.1863 H       1  UNL1        0.2923
@<TRIPOS>BOND
     1     1     2    2
     2     2     3   ar
     3     2     4   ar
     4     3     5    1
     5     3     6   ar
     6     4     7   ar
     7     4     8   ar
     8     5     9    1
     9     6    10   ar
    10     6    11    1
    11     7    12   ar
    12     8    13    1
    13     8    14   ar
    14     9    15    1
    15     9    16    1
    16    11    17   ar
    17    11    18   ar
    18    12    19   ar
    19    15    20    1
    20    16    21    1
    21    16    22    1
    22    17    23   ar
    23    18    24   ar
    24    19    25    1
    25    20    26    1
    26    20    27    1
    27    22    28    1
    28    23    29    1
    29    23    30   ar
    30    26    31    1
    31    27    32    1
    32    30    33    1
    33     7    10   ar
    34    14    19   ar
    35    22    26    1
    36    24    30   ar
    37     9    34    1
    38    12    35    1
    39    13    36    1
    40    14    37    1
    41    16    38    1
    42    17    39    1
    43    18    40    1
    44    20    41    1
    45    21    42    1
    46    22    43    1
    47    24    44    1
    48    25    45    1
    49    26    46    1
    50    27    47    1
    51    27    48    1
    52    28    49    1
    53    29    50    1
    54    31    51    1
    55    32    52    1
    56    33    53    1
@<TRIPOS>SUBSTRUCTURE
     1 UNL1        1 TEMP              0 ****  ****    0 ROOT


##########                                Name:                 150
##########                DOCK_Rotatable_Bonds:                   0
##########                         Heavy_Atoms:                  13
##########                    Molecular_Weight:             180.166
##########                       Formal_Charge:         9.99644e-05
##########                     HBond_Acceptors:                   6
##########                        HBond_Donors:                   1
##########                    Continuous_Score:          -26.940418
##########               Continuous_vdw_energy:          -26.790108
##########                Continuous_es_energy:           -0.150311
##########           Internal_energy_repulsive:            2.679200

@<TRIPOS>MOLECULE
150
 21 22 1 0 0
SMALL
GASTEIGER


@<TRIPOS>ATOM
      1 O          21.1466    8.0967   42.6336 O.2     1  UNL1       -0.2464
      2 C          21.7916    8.2948   41.6236 C.ar    1  UNL1        0.3307
      3 N          22.7743    9.2349   41.5299 N.ar    1  UNL1       -0.2797
      4 N          21.5545    7.5661   40.5112 N.ar    1  UNL1       -0.2731
      5 C          23.5089    9.4541   40.3692 C.ar    1  UNL1        0.1678
      6 C          23.1203   10.0897   42.6772 C.3     1  UNL1        0.0181
      7 C          22.1682    7.6512   39.3125 C.ar    1  UNL1        0.2798
      8 N          24.2742    9.9274   39.7138 N.ar    1  UNL1       -0.2177
      9 C          23.2219    8.6839   39.2662 C.ar    1  UNL1        0.1510
     10 O          21.8443    6.9226   38.3963 O.2     1  UNL1       -0.2654
     11 C          24.9218   10.1931   38.8487 C.ar    1  UNL1        0.0986
     12 N          24.1187    9.1911   38.3741 N.ar    1  UNL1       -0.3277
     13 C          24.2297    8.7144   36.9911 C.3     1  UNL1        0.0135
     14 H          20.8276    6.8723   40.5853 H       1  UNL1        0.1735
     15 H          22.4878    9.8766   43.5425 H       1  UNL1        0.0458
     16 H          22.9914   11.1382   42.3951 H       1  UNL1        0.0458
     17 H          24.1646    9.9178   42.9505 H       1  UNL1        0.0458
     18 H          25.6730   10.6768   38.2421 H       1  UNL1        0.1029
     19 H          23.5119    7.9145   36.7978 H       1  UNL1        0.0456
     20 H          25.2400    8.3347   36.8168 H       1  UNL1        0.0456
     21 H          24.0316    9.5423   36.3049 H       1  UNL1        0.0456
@<TRIPOS>BOND
     1     1     2    2
     2     2     3   ar
     3     2     4   ar
     4     3     5   ar
     5     3     6    1
     6     4     7   ar
     7     5     8   ar
     8     5     9   ar
     9     7    10    2
    10     8    11   ar
    11     9    12   ar
    12    12    13    1
    13     7     9   ar
    14    11    12   ar
    15     4    14    1
    16     6    15    1
    17     6    16    1
    18     6    17    1
    19    11    18    1
    20    13    19    1
    21    13    20    1
    22    13    21    1
@<TRIPOS>SUBSTRUCTURE
     1 UNL1        1 TEMP              0 ****  ****    0 ROOT


##########                                Name:                 150
##########                DOCK_Rotatable_Bonds:                   0
##########                         Heavy_Atoms:                  13
##########                    Molecular_Weight:             180.166
##########                       Formal_Charge:         9.99644e-05
##########                     HBond_Acceptors:                   6
##########                        HBond_Donors:                   1
##########                    Continuous_Score:          -26.992010
##########               Continuous_vdw_energy:          -26.695990
##########                Continuous_es_energy:           -0.296021
##########           Internal_energy_repulsive:            2.679807

@<TRIPOS>MOLECULE
150
 21 22 1 0 0
SMALL
GASTEIGER


@<TRIPOS>ATOM
      1 O          21.2228    7.9657   42.6796 O.2     1  UNL1       -0.2464
      2 C          21.7940    8.2525   41.6466 C.ar    1  UNL1        0.3307
      3 N          22.5737    9.3610   41.5000 N.ar    1  UNL1       -0.2797
      4 N          21.6773    7.4570   40.5613 N.ar    1  UNL1       -0.2731
      5 C          23.2254    9.6810   40.3136 C.ar    1  UNL1        0.1678
      6 C          22.7736   10.3023   42.6140 C.3     1  UNL1        0.0181
      7 C          22.2355    7.6209   39.3436 C.ar    1  UNL1        0.2798
      8 N          23.8692   10.2721   39.6243 N.ar    1  UNL1       -0.2177
      9 C          23.0679    8.8354   39.2401 C.ar    1  UNL1        0.1510
     10 O          22.0379    6.8149   38.4568 O.2     1  UNL1       -0.2654
     11 C          24.4334   10.6304   38.7344 C.ar    1  UNL1        0.0986
     12 N          23.8291    9.4777   38.3096 N.ar    1  UNL1       -0.3277
     13 C          23.9987    8.9881   36.9372 C.3     1  UNL1        0.0135
     14 H          21.1003    6.6386   40.6744 H       1  UNL1        0.1735
     15 H          22.2141    9.9985   43.5023 H       1  UNL1        0.0458
     16 H          22.4377   11.2968   42.3079 H       1  UNL1        0.0458
     17 H          23.8374   10.3439   42.8619 H       1  UNL1        0.0458
     18 H          25.0626   11.2305   38.0940 H       1  UNL1        0.1029
     19 H          23.4451    8.0588   36.7857 H       1  UNL1        0.0456
     20 H          25.0591    8.8050   36.7445 H       1  UNL1        0.0456
     21 H          23.6284    9.7400   36.2352 H       1  UNL1        0.0456
@<TRIPOS>BOND
     1     1     2    2
     2     2     3   ar
     3     2     4   ar
     4     3     5   ar
     5     3     6    1
     6     4     7   ar
     7     5     8   ar
     8     5     9   ar
     9     7    10    2
    10     8    11   ar
    11     9    12   ar
    12    12    13    1
    13     7     9   ar
    14    11    12   ar
    15     4    14    1
    16     6    15    1
    17     6    16    1
    18     6    17    1
    19    11    18    1
    20    13    19    1
    21    13    20    1
    22    13    21    1
@<TRIPOS>SUBSTRUCTURE
     1 UNL1        1 TEMP              0 ****  ****    0 ROOT


##########                                Name:                 150
##########                DOCK_Rotatable_Bonds:                   0
##########                         Heavy_Atoms:                  13
##########                    Molecular_Weight:             180.166
##########                       Formal_Charge:         9.99644e-05
##########                     HBond_Acceptors:                   6
##########                        HBond_Donors:                   1
##########                    Continuous_Score:          -26.890589
##########               Continuous_vdw_energy:          -26.715235
##########                Continuous_es_energy:           -0.175353
##########           Internal_energy_repulsive:            2.679587

@<TRIPOS>MOLECULE
150
 21 22 1 0 0
SMALL
GASTEIGER


@<TRIPOS>ATOM
      1 O          21.1660    8.1202   42.6404 O.2     1  UNL1       -0.2464
      2 C          21.8296    8.2881   41.6369 C.ar    1  UNL1        0.3307
      3 N          22.8403    9.1983   41.5460 N.ar    1  UNL1       -0.2797
      4 N          21.5860    7.5539   40.5296 N.ar    1  UNL1       -0.2731
      5 C          23.5961    9.3831   40.3929 C.ar    1  UNL1        0.1678
      6 C          23.1958   10.0559   42.6884 C.3     1  UNL1        0.0181
      7 C          22.2176    7.6077   39.3383 C.ar    1  UNL1        0.2798
      8 N          24.3830    9.8267   39.7425 N.ar    1  UNL1       -0.2177
      9 C          23.3012    8.6089   39.2947 C.ar    1  UNL1        0.1510
     10 O          21.8847    6.8784   38.4260 O.2     1  UNL1       -0.2654
     11 C          25.0494   10.0638   38.8834 C.ar    1  UNL1        0.0986
     12 N          24.2239    9.0799   38.4091 N.ar    1  UNL1       -0.3277
     13 C          24.3390    8.5846   37.0331 C.3     1  UNL1        0.0135
     14 H          20.8384    6.8823   40.6015 H       1  UNL1        0.1735
     15 H          22.5461    9.8709   43.5475 H       1  UNL1        0.0458
     16 H          23.1010   11.1044   42.3932 H       1  UNL1        0.0458
     17 H          24.2311    9.8572   42.9775 H       1  UNL1        0.0458
     18 H          25.8220   10.5188   38.2815 H       1  UNL1        0.1029
     19 H          23.6009    7.8035   36.8390 H       1  UNL1        0.0456
     20 H          25.3401    8.1740   36.8765 H       1  UNL1        0.0456
     21 H          24.1739    9.4099   36.3352 H       1  UNL1        0.0456
@<TRIPOS>BOND
     1     1     2    2
     2     2     3   ar
     3     2     4   ar
     4     3     5   ar
     5     3     6    1
     6     4     7   ar
     7     5     8   ar
     8     5     9   ar
     9     7    10    2
    10     8    11   ar
    11     9    12   ar
    12    12    13    1
    13     7     9   ar
    14    11    12   ar
    15     4    14    1
    16     6    15    1
    17     6    16    1
    18     6    17    1
    19    11    18    1
    20    13    19    1
    21    13    20    1
    22    13    21    1
@<TRIPOS>SUBSTRUCTURE
     1 UNL1        1 TEMP              0 ****  ****    0 ROOT


##########                                Name:                 151
##########                DOCK_Rotatable_Bonds:                   6
##########                         Heavy_Atoms:                  22
##########                    Molecular_Weight:              302.24
##########                       Formal_Charge:         0.000100076
##########                     HBond_Acceptors:                   7
##########                        HBond_Donors:                   5
##########                    Continuous_Score:          -38.429150
##########               Continuous_vdw_energy:          -33.049782
##########                Continuous_es_energy:           -5.379369
##########           Internal_energy_repulsive:            3.005653

@<TRIPOS>MOLECULE
151
 32 34 1 0 0
SMALL
GASTEIGER


@<TRIPOS>ATOM
      1 O          16.5274   13.9825   46.1091 O.2     1  UNL1       -0.2830
      2 C          15.9906   13.7562   45.0383 C.ar    1  UNL1        0.2379
      3 C          14.5699   13.3315   44.9169 C.ar    1  UNL1        0.2082
      4 C          16.6739   13.8785   43.7379 C.ar    1  UNL1        0.1092
      5 O          13.9854   13.2447   46.1416 O.3     1  UNL1       -0.5007
      6 C          14.1242   13.1432   43.8910 C.ar    1  UNL1        0.1807
      7 C          15.9033   13.5821   42.6345 C.ar    1  UNL1        0.1465
      8 C          18.0477   14.2828   43.5284 C.ar    1  UNL1        0.1348
      9 O          14.5762   13.2126   42.8573 O.2     1  UNL1       -0.4507
     10 C          12.6922   12.7086   43.6807 C.ar    1  UNL1        0.0247
     11 C          16.4866   13.6742   41.3064 C.ar    1  UNL1        0.0231
     12 O          18.8380   14.5924   44.5868 O.3     1  UNL1       -0.5058
     13 C          18.5888   14.3749   42.2551 C.ar    1  UNL1        0.0223
     14 C          12.3799   11.3640   43.3971 C.ar    1  UNL1       -0.0057
     15 C          11.6464   13.6523   43.6985 C.ar    1  UNL1       -0.0473
     16 C          17.8205   14.0726   41.1409 C.ar    1  UNL1        0.1239
     17 C          11.0577   10.9843   43.1419 C.ar    1  UNL1        0.1589
     18 C          10.3304   13.2588   43.4424 C.ar    1  UNL1       -0.0159
     19 O          18.4315   14.1848   39.9215 O.3     1  UNL1       -0.5065
     20 O          10.7282    9.6907   42.8542 O.3     1  UNL1       -0.5033
     21 C          10.0361   11.9264   43.1611 C.ar    1  UNL1        0.1583
     22 O           8.7598   11.5181   42.8864 O.3     1  UNL1       -0.5033
     23 H          13.0526   12.9489   45.9973 H       1  UNL1        0.2924
     24 H          15.8725   13.4280   40.4437 H       1  UNL1        0.0691
     25 H          19.6919   14.8740   44.2133 H       1  UNL1        0.2922
     26 H          19.6241   14.6864   42.1302 H       1  UNL1        0.0691
     27 H          13.1687   10.6169   43.3644 H       1  UNL1        0.0662
     28 H          11.8549   14.6997   43.9002 H       1  UNL1        0.0626
     29 H           9.5330   13.9981   43.4517 H       1  UNL1        0.0655
     30 H          19.3607   14.4469   39.9741 H       1  UNL1        0.2921
     31 H          11.5170    9.1998   42.5934 H       1  UNL1        0.2923
     32 H           8.1448   12.0315   43.4659 H       1  UNL1        0.2923
@<TRIPOS>BOND
     1     1     2    2
     2     2     3   ar
     3     2     4   ar
     4     3     5    1
     5     3     6   ar
     6     4     7   ar
     7     4     8   ar
     8     6     9   ar
     9     6    10    1
    10     7    11   ar
    11     8    12    1
    12     8    13   ar
    13    10    14   ar
    14    10    15   ar
    15    11    16   ar
    16    14    17   ar
    17    15    18   ar
    18    16    19    1
    19    17    20    1
    20    17    21   ar
    21    21    22    1
    22     7     9   ar
    23    13    16   ar
    24    18    21   ar
    25     5    23    1
    26    11    24    1
    27    12    25    1
    28    13    26    1
    29    14    27    1
    30    15    28    1
    31    18    29    1
    32    19    30    1
    33    20    31    1
    34    22    32    1
@<TRIPOS>SUBSTRUCTURE
     1 UNL1        1 TEMP              0 ****  ****    0 ROOT


##########                                Name:                 151
##########                DOCK_Rotatable_Bonds:                   6
##########                         Heavy_Atoms:                  22
##########                    Molecular_Weight:              302.24
##########                       Formal_Charge:         0.000100076
##########                     HBond_Acceptors:                   7
##########                        HBond_Donors:                   5
##########                    Continuous_Score:          -37.875755
##########               Continuous_vdw_energy:          -33.133091
##########                Continuous_es_energy:           -4.742665
##########           Internal_energy_repulsive:            3.005397

@<TRIPOS>MOLECULE
151
 32 34 1 0 0
SMALL
GASTEIGER


@<TRIPOS>ATOM
      1 O          16.5596   13.9941   46.0966 O.2     1  UNL1       -0.2830
      2 C          16.0211   13.7571   45.0290 C.ar    1  UNL1        0.2379
      3 C          14.6001   13.3315   44.9138 C.ar    1  UNL1        0.2082
      4 C          16.7027   13.8663   43.7264 C.ar    1  UNL1        0.1092
      5 O          14.0174   13.2572   46.1403 O.3     1  UNL1       -0.5007
      6 C          14.1529   13.1330   43.8906 C.ar    1  UNL1        0.1807
      7 C          15.9302   13.5589   42.6272 C.ar    1  UNL1        0.1465
      8 C          18.0762   14.2682   43.5108 C.ar    1  UNL1        0.1348
      9 O          14.6035   13.1919   42.8556 O.2     1  UNL1       -0.4507
     10 C          12.7206   12.6966   43.6867 C.ar    1  UNL1        0.0247
     11 C          16.5118   13.6376   41.2974 C.ar    1  UNL1        0.0231
     12 O          18.8680   14.5882   44.5649 O.3     1  UNL1       -0.5058
     13 C          18.6154   14.3473   42.2359 C.ar    1  UNL1        0.0223
     14 C          12.4075   11.3491   43.4179 C.ar    1  UNL1       -0.0057
     15 C          11.6750   13.6407   43.6957 C.ar    1  UNL1       -0.0473
     16 C          17.8454   14.0340   41.1260 C.ar    1  UNL1        0.1239
     17 C          11.0849   10.9671   43.1683 C.ar    1  UNL1        0.1589
     18 C          10.3586   13.2449   43.4455 C.ar    1  UNL1       -0.0159
     19 O          18.4547   14.1338   39.9047 O.3     1  UNL1       -0.5065
     20 O          10.7547    9.6705   42.8950 O.3     1  UNL1       -0.5033
     21 C          10.0636   11.9096   43.1789 C.ar    1  UNL1        0.1583
     22 O           8.7869   11.4989   42.9100 O.3     1  UNL1       -0.5033
     23 H          13.0498   13.1143   45.9931 H       1  UNL1        0.2924
     24 H          15.8964   13.3829   40.4380 H       1  UNL1        0.0691
     25 H          19.7166   14.8796   44.1870 H       1  UNL1        0.2922
     26 H          19.6507   14.6574   42.1063 H       1  UNL1        0.0691
     27 H          13.1962   10.6015   43.3922 H       1  UNL1        0.0662
     28 H          11.8842   14.6902   43.8860 H       1  UNL1        0.0626
     29 H           9.5615   13.9844   43.4479 H       1  UNL1        0.0655
     30 H          17.8506   14.0238   39.1578 H       1  UNL1        0.2921
     31 H          11.5388    9.1829   42.6144 H       1  UNL1        0.2923
     32 H           8.1665   12.0954   43.3968 H       1  UNL1        0.2923
@<TRIPOS>BOND
     1     1     2    2
     2     2     3   ar
     3     2     4   ar
     4     3     5    1
     5     3     6   ar
     6     4     7   ar
     7     4     8   ar
     8     6     9   ar
     9     6    10    1
    10     7    11   ar
    11     8    12    1
    12     8    13   ar
    13    10    14   ar
    14    10    15   ar
    15    11    16   ar
    16    14    17   ar
    17    15    18   ar
    18    16    19    1
    19    17    20    1
    20    17    21   ar
    21    21    22    1
    22     7     9   ar
    23    13    16   ar
    24    18    21   ar
    25     5    23    1
    26    11    24    1
    27    12    25    1
    28    13    26    1
    29    14    27    1
    30    15    28    1
    31    18    29    1
    32    19    30    1
    33    20    31    1
    34    22    32    1
@<TRIPOS>SUBSTRUCTURE
     1 UNL1        1 TEMP              0 ****  ****    0 ROOT


##########                                Name:                 151
##########                DOCK_Rotatable_Bonds:                   6
##########                         Heavy_Atoms:                  22
##########                    Molecular_Weight:              302.24
##########                       Formal_Charge:         0.000100076
##########                     HBond_Acceptors:                   7
##########                        HBond_Donors:                   5
##########                    Continuous_Score:          -38.389191
##########               Continuous_vdw_energy:          -33.081699
##########                Continuous_es_energy:           -5.307491
##########           Internal_energy_repulsive:            2.923033

@<TRIPOS>MOLECULE
151
 32 34 1 0 0
SMALL
GASTEIGER


@<TRIPOS>ATOM
      1 O          16.5482   13.9476   46.1624 O.2     1  UNL1       -0.2830
      2 C          16.0452   13.7749   45.0656 C.ar    1  UNL1        0.2379
      3 C          14.6181   13.3985   44.8778 C.ar    1  UNL1        0.2082
      4 C          16.7798   13.9211   43.7958 C.ar    1  UNL1        0.1092
      5 O          13.9861   13.2875   46.0766 O.3     1  UNL1       -0.5007
      6 C          14.2056   13.2594   43.8303 C.ar    1  UNL1        0.1807
      7 C          16.0423   13.6866   42.6555 C.ar    1  UNL1        0.1465
      8 C          18.1717   14.2901   43.6508 C.ar    1  UNL1        0.1348
      9 O          14.6977   13.3505   42.8168 O.2     1  UNL1       -0.4507
     10 C          12.7703   12.8765   43.5529 C.ar    1  UNL1        0.0247
     11 C          16.6773   13.8066   41.3535 C.ar    1  UNL1        0.0231
     12 O          18.9307   14.5386   44.7475 O.3     1  UNL1       -0.5058
     13 C          18.7623   14.4094   42.4019 C.ar    1  UNL1        0.0223
     14 C          12.4012   11.5258   43.3938 C.ar    1  UNL1       -0.0057
     15 C          11.7838   13.8675   43.3822 C.ar    1  UNL1       -0.0473
     16 C          18.0275   14.1693   41.2507 C.ar    1  UNL1        0.1239
     17 C          11.0818   11.1868   43.0749 C.ar    1  UNL1        0.1589
     18 C          10.4699   13.5143   43.0646 C.ar    1  UNL1       -0.0159
     19 O          18.6865   14.3048   40.0589 O.3     1  UNL1       -0.5065
     20 O          10.6989    9.8870   42.9047 O.3     1  UNL1       -0.5033
     21 C          10.1192   12.1751   42.9077 C.ar    1  UNL1        0.1583
     22 O           8.8453   11.8031   42.5763 O.3     1  UNL1       -0.5033
     23 H          13.2104   12.6890   45.9410 H       1  UNL1        0.2924
     24 H          16.0888   13.6093   40.4609 H       1  UNL1        0.0691
     25 H          18.3183   14.5454   45.5042 H       1  UNL1        0.2922
     26 H          19.8103   14.6931   42.3258 H       1  UNL1        0.0691
     27 H          13.1447   10.7411   43.5074 H       1  UNL1        0.0662
     28 H          12.0382   14.9194   43.4844 H       1  UNL1        0.0626
     29 H           9.7193   14.2891   42.9281 H       1  UNL1        0.0655
     30 H          18.2342   13.8860   39.3139 H       1  UNL1        0.2921
     31 H          11.4718    9.3098   42.9294 H       1  UNL1        0.2923
     32 H           8.2278   12.4970   42.9154 H       1  UNL1        0.2923
@<TRIPOS>BOND
     1     1     2    2
     2     2     3   ar
     3     2     4   ar
     4     3     5    1
     5     3     6   ar
     6     4     7   ar
     7     4     8   ar
     8     6     9   ar
     9     6    10    1
    10     7    11   ar
    11     8    12    1
    12     8    13   ar
    13    10    14   ar
    14    10    15   ar
    15    11    16   ar
    16    14    17   ar
    17    15    18   ar
    18    16    19    1
    19    17    20    1
    20    17    21   ar
    21    21    22    1
    22     7     9   ar
    23    13    16   ar
    24    18    21   ar
    25     5    23    1
    26    11    24    1
    27    12    25    1
    28    13    26    1
    29    14    27    1
    30    15    28    1
    31    18    29    1
    32    19    30    1
    33    20    31    1
    34    22    32    1
@<TRIPOS>SUBSTRUCTURE
     1 UNL1        1 TEMP              0 ****  ****    0 ROOT


##########                                Name:                 152
##########                DOCK_Rotatable_Bonds:                   5
##########                         Heavy_Atoms:                  21
##########                    Molecular_Weight:             286.241
##########                       Formal_Charge:        -5.96046e-08
##########                     HBond_Acceptors:                   6
##########                        HBond_Donors:                   4
##########                    Continuous_Score:          -34.620750
##########               Continuous_vdw_energy:          -30.299114
##########                Continuous_es_energy:           -4.321638
##########           Internal_energy_repulsive:            2.364668

@<TRIPOS>MOLECULE
152
 31 33 1 0 0
SMALL
GASTEIGER


@<TRIPOS>ATOM
      1 O          16.3673   13.7656   46.0676 O.2     1  UNL1       -0.2869
      2 C          16.0489   13.6615   44.8981 C.ar    1  UNL1        0.1966
      3 C          16.9444   13.9119   43.7596 C.ar    1  UNL1        0.1055
      4 C          14.6835   13.3024   44.4560 C.ar    1  UNL1        0.0288
      5 C          16.3581   13.7763   42.5207 C.ar    1  UNL1        0.1462
      6 C          18.3326   14.3148   43.8273 C.ar    1  UNL1        0.1347
      7 C          14.3440   13.2021   43.3816 C.ar    1  UNL1        0.1393
      8 O          15.0045   13.4335   42.4924 O.2     1  UNL1       -0.4544
      9 C          17.1348   14.0342   41.3254 C.ar    1  UNL1        0.0231
     10 O          18.9425   14.4714   45.0324 O.3     1  UNL1       -0.5058
     11 C          19.0631   14.5673   42.6743 C.ar    1  UNL1        0.0223
     12 C          12.8974   12.8521   43.0732 C.ar    1  UNL1        0.0211
     13 C          18.4743   14.4283   41.4244 C.ar    1  UNL1        0.1239
     14 C          12.4160   11.5241   43.1696 C.ar    1  UNL1       -0.0059
     15 C          11.9791   13.8598   42.7129 C.ar    1  UNL1       -0.0474
     16 O          19.2458   14.6873   40.3275 O.3     1  UNL1       -0.5065
     17 C          11.0674   11.2323   42.9606 C.ar    1  UNL1        0.1589
     18 C          10.6333   13.5566   42.5005 C.ar    1  UNL1       -0.0159
     19 O          10.5958    9.9529   43.0853 O.3     1  UNL1       -0.5033
     20 C          10.1758   12.2488   42.6356 C.ar    1  UNL1        0.1583
     21 O           8.8580   11.9438   42.4633 O.3     1  UNL1       -0.5033
     22 H          13.9923   13.2215   45.2878 H       1  UNL1        0.0693
     23 H          16.6626   13.9159   40.3534 H       1  UNL1        0.0691
     24 H          19.8594   14.7518   44.8506 H       1  UNL1        0.2922
     25 H          20.1034   14.8775   42.7509 H       1  UNL1        0.0691
     26 H          13.0852   10.7036   43.4141 H       1  UNL1        0.0662
     27 H          12.3003   14.8948   42.6218 H       1  UNL1        0.0626
     28 H          18.7565   14.5670   39.5015 H       1  UNL1        0.2921
     29 H           9.9355   14.3497   42.2431 H       1  UNL1        0.0655
     30 H          11.2992    9.3020   42.9170 H       1  UNL1        0.2923
     31 H           8.4691   12.6425   41.8908 H       1  UNL1        0.2923
@<TRIPOS>BOND
     1     1     2    2
     2     2     3   ar
     3     2     4   ar
     4     3     5   ar
     5     3     6   ar
     6     4     7   ar
     7     5     8   ar
     8     5     9   ar
     9     6    10    1
    10     6    11   ar
    11     7    12    1
    12     9    13   ar
    13    12    14   ar
    14    12    15   ar
    15    13    16    1
    16    14    17   ar
    17    15    18   ar
    18    17    19    1
    19    17    20   ar
    20    20    21    1
    21     7     8   ar
    22    11    13   ar
    23    18    20   ar
    24     4    22    1
    25     9    23    1
    26    10    24    1
    27    11    25    1
    28    14    26    1
    29    15    27    1
    30    16    28    1
    31    18    29    1
    32    19    30    1
    33    21    31    1
@<TRIPOS>SUBSTRUCTURE
     1 UNL1        1 TEMP              0 ****  ****    0 ROOT


##########                                Name:                 152
##########                DOCK_Rotatable_Bonds:                   5
##########                         Heavy_Atoms:                  21
##########                    Molecular_Weight:             286.241
##########                       Formal_Charge:        -5.96046e-08
##########                     HBond_Acceptors:                   6
##########                        HBond_Donors:                   4
##########                    Continuous_Score:          -33.975403
##########               Continuous_vdw_energy:          -29.383087
##########                Continuous_es_energy:           -4.592314
##########           Internal_energy_repulsive:            2.426952

@<TRIPOS>MOLECULE
152
 31 33 1 0 0
SMALL
GASTEIGER


@<TRIPOS>ATOM
      1 O          16.4488   13.6207   45.9883 O.2     1  UNL1       -0.2869
      2 C          16.1149   13.6074   44.8185 C.ar    1  UNL1        0.1966
      3 C          16.9918   13.9574   43.6921 C.ar    1  UNL1        0.1055
      4 C          14.7468   13.2708   44.3674 C.ar    1  UNL1        0.0288
      5 C          16.3893   13.9155   42.4542 C.ar    1  UNL1        0.1462
      6 C          18.3771   14.3680   43.7733 C.ar    1  UNL1        0.1347
      7 C          14.3931   13.2535   43.2931 C.ar    1  UNL1        0.1393
      8 O          15.0387   13.5621   42.4166 O.2     1  UNL1       -0.4544
      9 C          17.1467   14.2764   41.2732 C.ar    1  UNL1        0.0231
     10 O          19.0026   14.4336   44.9788 O.3     1  UNL1       -0.5058
     11 C          19.0888   14.7195   42.6346 C.ar    1  UNL1        0.0223
     12 C          12.9455   12.9143   42.9769 C.ar    1  UNL1        0.0211
     13 C          18.4838   14.6750   41.3855 C.ar    1  UNL1        0.1239
     14 C          12.4422   11.5981   43.1136 C.ar    1  UNL1       -0.0059
     15 C          12.0479   13.9223   42.5680 C.ar    1  UNL1       -0.0474
     16 O          19.2372   15.0292   40.3029 O.3     1  UNL1       -0.5065
     17 C          11.0923   11.3193   42.8961 C.ar    1  UNL1        0.1589
     18 C          10.7006   13.6318   42.3475 C.ar    1  UNL1       -0.0159
     19 O          10.5992   10.0523   43.0595 O.3     1  UNL1       -0.5033
     20 C          10.2210   12.3368   42.5226 C.ar    1  UNL1        0.1583
     21 O           8.9011   12.0455   42.3426 O.3     1  UNL1       -0.5033
     22 H          14.0681   13.1164   45.1991 H       1  UNL1        0.0693
     23 H          16.6619   14.2316   40.3012 H       1  UNL1        0.0691
     24 H          19.9039   14.7682   44.8116 H       1  UNL1        0.2922
     25 H          20.1273   15.0333   42.7221 H       1  UNL1        0.0691
     26 H          13.0953   10.7768   43.3965 H       1  UNL1        0.0662
     27 H          12.3863   14.9484   42.4447 H       1  UNL1        0.0626
     28 H          20.1530   15.2258   40.5451 H       1  UNL1        0.2921
     29 H          10.0187   14.4256   42.0522 H       1  UNL1        0.0655
     30 H          11.3077    9.3889   42.9912 H       1  UNL1        0.2923
     31 H           8.4571   12.8725   42.0493 H       1  UNL1        0.2923
@<TRIPOS>BOND
     1     1     2    2
     2     2     3   ar
     3     2     4   ar
     4     3     5   ar
     5     3     6   ar
     6     4     7   ar
     7     5     8   ar
     8     5     9   ar
     9     6    10    1
    10     6    11   ar
    11     7    12    1
    12     9    13   ar
    13    12    14   ar
    14    12    15   ar
    15    13    16    1
    16    14    17   ar
    17    15    18   ar
    18    17    19    1
    19    17    20   ar
    20    20    21    1
    21     7     8   ar
    22    11    13   ar
    23    18    20   ar
    24     4    22    1
    25     9    23    1
    26    10    24    1
    27    11    25    1
    28    14    26    1
    29    15    27    1
    30    16    28    1
    31    18    29    1
    32    19    30    1
    33    21    31    1
@<TRIPOS>SUBSTRUCTURE
     1 UNL1        1 TEMP              0 ****  ****    0 ROOT


##########                                Name:                 152
##########                DOCK_Rotatable_Bonds:                   5
##########                         Heavy_Atoms:                  21
##########                    Molecular_Weight:             286.241
##########                       Formal_Charge:        -5.96046e-08
##########                     HBond_Acceptors:                   6
##########                        HBond_Donors:                   4
##########                    Continuous_Score:          -34.061657
##########               Continuous_vdw_energy:          -31.321764
##########                Continuous_es_energy:           -2.739891
##########           Internal_energy_repulsive:            2.357984

@<TRIPOS>MOLECULE
152
 31 33 1 0 0
SMALL
GASTEIGER


@<TRIPOS>ATOM
      1 O          16.3128   13.8378   46.1634 O.2     1  UNL1       -0.2869
      2 C          15.9263   13.6503   45.0252 C.ar    1  UNL1        0.1966
      3 C          16.7443   13.8432   43.8194 C.ar    1  UNL1        0.1055
      4 C          14.5457   13.2350   44.6934 C.ar    1  UNL1        0.0288
      5 C          16.0870   13.6142   42.6308 C.ar    1  UNL1        0.1462
      6 C          18.1239   14.2781   43.7741 C.ar    1  UNL1        0.1347
      7 C          14.1439   13.0571   43.6511 C.ar    1  UNL1        0.1393
      8 O          14.7431   13.2427   42.7094 O.2     1  UNL1       -0.4544
      9 C          16.7829   13.8086   41.3751 C.ar    1  UNL1        0.0231
     10 O          18.8020   14.5261   44.9260 O.3     1  UNL1       -0.5058
     11 C          18.7762   14.4687   42.5638 C.ar    1  UNL1        0.0223
     12 C          12.6902   12.6580   43.4569 C.ar    1  UNL1        0.0211
     13 C          18.1159   14.2356   41.3646 C.ar    1  UNL1        0.1239
     14 C          12.3056   11.3060   43.2871 C.ar    1  UNL1       -0.0059
     15 C          11.6721   13.6337   43.4763 C.ar    1  UNL1       -0.0474
     16 O          18.8125   14.4374   40.2074 O.3     1  UNL1       -0.5065
     17 C          10.9601   10.9490   43.1900 C.ar    1  UNL1        0.1589
     18 C          10.3294   13.2666   43.3727 C.ar    1  UNL1       -0.0159
     19 O          10.5866    9.6383   43.0580 O.3     1  UNL1       -0.5033
     20 C           9.9732   11.9273   43.2421 C.ar    1  UNL1        0.1583
     21 O           8.6640   11.5517   43.1729 O.3     1  UNL1       -0.5033
     22 H          13.9087   13.1950   45.5703 H       1  UNL1        0.0693
     23 H          16.2553   13.6168   40.4442 H       1  UNL1        0.0691
     24 H          19.4407   15.2376   44.7302 H       1  UNL1        0.2922
     25 H          19.8114   14.8045   42.5551 H       1  UNL1        0.0691
     26 H          13.0499   10.5158   43.2345 H       1  UNL1        0.0662
     27 H          11.9161   14.6861   43.6003 H       1  UNL1        0.0626
     28 H          18.3227   14.1346   39.4299 H       1  UNL1        0.2921
     29 H           9.5567   14.0306   43.4099 H       1  UNL1        0.0655
     30 H           9.6631    9.5074   43.3350 H       1  UNL1        0.2923
     31 H           8.2365   12.1091   42.4847 H       1  UNL1        0.2923
@<TRIPOS>BOND
     1     1     2    2
     2     2     3   ar
     3     2     4   ar
     4     3     5   ar
     5     3     6   ar
     6     4     7   ar
     7     5     8   ar
     8     5     9   ar
     9     6    10    1
    10     6    11   ar
    11     7    12    1
    12     9    13   ar
    13    12    14   ar
    14    12    15   ar
    15    13    16    1
    16    14    17   ar
    17    15    18   ar
    18    17    19    1
    19    17    20   ar
    20    20    21    1
    21     7     8   ar
    22    11    13   ar
    23    18    20   ar
    24     4    22    1
    25     9    23    1
    26    10    24    1
    27    11    25    1
    28    14    26    1
    29    15    27    1
    30    16    28    1
    31    18    29    1
    32    19    30    1
    33    21    31    1
@<TRIPOS>SUBSTRUCTURE
     1 UNL1        1 TEMP              0 ****  ****    0 ROOT

