MODEL 1
REMARK VINA RESULT:    -6.014      0.000      0.000
REMARK INTER + INTRA:          -6.014
REMARK INTER:                  -6.014
REMARK INTRA:                   0.000
REMARK UNBOUND:                 0.000
REMARK  Name = opt57.pdb
REMARK  0 active torsions:
REMARK  status: ('A' for Active; 'I' for Inactive)
REMARK                            x       y       z     vdW  Elec       q    Type
REMARK                         _______ _______ _______ _____ _____    ______ ____
ROOT
ATOM      1  O   UNL     1       7.698  11.723  42.382  0.00  0.00    +0.000 OA
ATOM      2  C   UNL     1       8.638  12.249  42.940  0.00  0.00    +0.000 A 
ATOM      3  O   UNL     1       9.916  11.907  42.641  0.00  0.00    +0.000 OA
ATOM      4  C   UNL     1       8.499  13.291  43.968  0.00  0.00    +0.000 A 
ATOM      5  C   UNL     1      11.045  12.434  43.239  0.00  0.00    +0.000 A 
ATOM      6  C   UNL     1       9.636  13.910  44.587  0.00  0.00    +0.000 A 
ATOM      7  C   UNL     1      10.904  13.490  44.211  0.00  0.00    +0.000 A 
ATOM      8  C   UNL     1      12.325  11.925  42.818  0.00  0.00    +0.000 A 
ATOM      9  C   UNL     1      12.051  14.073  44.745  0.00  0.00    +0.000 A 
ATOM     10  C   UNL     1      13.500  12.636  43.259  0.00  0.00    +0.000 A 
ATOM     11  C   UNL     1      13.335  13.612  44.288  0.00  0.00    +0.000 A 
ATOM     12  O   UNL     1      14.717  12.027  43.424  0.00  0.00    +0.000 OA
ATOM     13  C   UNL     1      14.511  13.579  45.095  0.00  0.00    +0.000 A 
ATOM     14  C   UNL     1      15.321  12.639  44.502  0.00  0.00    +0.000 A 
ENDROOT
TORSDOF 0
ENDMDL
MODEL 2
REMARK VINA RESULT:    -5.915      0.828      0.829
REMARK INTER + INTRA:          -5.915
REMARK INTER:                  -5.915
REMARK INTRA:                   0.000
REMARK UNBOUND:                 0.000
REMARK  Name = opt57.pdb
REMARK  0 active torsions:
REMARK  status: ('A' for Active; 'I' for Inactive)
REMARK                            x       y       z     vdW  Elec       q    Type
REMARK                         _______ _______ _______ _____ _____    ______ ____
ROOT
ATOM      1  O   UNL     1       6.870  11.897  42.202  0.00  0.00    +0.000 OA
ATOM      2  C   UNL     1       7.819  12.357  42.801  0.00  0.00    +0.000 A 
ATOM      3  O   UNL     1       9.088  11.978  42.510  0.00  0.00    +0.000 OA
ATOM      4  C   UNL     1       7.701  13.353  43.876  0.00  0.00    +0.000 A 
ATOM      5  C   UNL     1      10.226  12.429  43.152  0.00  0.00    +0.000 A 
ATOM      6  C   UNL     1       8.849  13.896  44.544  0.00  0.00    +0.000 A 
ATOM      7  C   UNL     1      10.108  13.443  44.171  0.00  0.00    +0.000 A 
ATOM      8  C   UNL     1      11.493  11.890  42.730  0.00  0.00    +0.000 A 
ATOM      9  C   UNL     1      11.266  13.954  44.753  0.00  0.00    +0.000 A 
ATOM     10  C   UNL     1      12.686  12.532  43.226  0.00  0.00    +0.000 A 
ATOM     11  C   UNL     1      12.540  13.464  44.297  0.00  0.00    +0.000 A 
ATOM     12  O   UNL     1      13.874  11.866  43.382  0.00  0.00    +0.000 OA
ATOM     13  C   UNL     1      13.696  13.345  45.123  0.00  0.00    +0.000 A 
ATOM     14  C   UNL     1      14.480  12.401  44.500  0.00  0.00    +0.000 A 
ENDROOT
TORSDOF 0
ENDMDL
MODEL 3
REMARK VINA RESULT:    -5.529      0.940      4.898
REMARK INTER + INTRA:          -5.529
REMARK INTER:                  -5.529
REMARK INTRA:                   0.000
REMARK UNBOUND:                 0.000
REMARK  Name = opt57.pdb
REMARK  0 active torsions:
REMARK  status: ('A' for Active; 'I' for Inactive)
REMARK                            x       y       z     vdW  Elec       q    Type
REMARK                         _______ _______ _______ _____ _____    ______ ____
ROOT
ATOM      1  O   UNL     1      15.491  12.389  43.579  0.00  0.00    +0.000 OA
ATOM      2  C   UNL     1      14.369  12.791  43.806  0.00  0.00    +0.000 A 
ATOM      3  O   UNL     1      13.283  12.213  43.236  0.00  0.00    +0.000 OA
ATOM      4  C   UNL     1      14.072  13.915  44.706  0.00  0.00    +0.000 A 
ATOM      5  C   UNL     1      11.974  12.616  43.417  0.00  0.00    +0.000 A 
ATOM      6  C   UNL     1      12.729  14.346  44.972  0.00  0.00    +0.000 A 
ATOM      7  C   UNL     1      11.685  13.687  44.339  0.00  0.00    +0.000 A 
ATOM      8  C   UNL     1      10.947  11.903  42.701  0.00  0.00    +0.000 A 
ATOM      9  C   UNL     1      10.356  14.030  44.580  0.00  0.00    +0.000 A 
ATOM     10  C   UNL     1       9.577  12.161  43.073  0.00  0.00    +0.000 A 
ATOM     11  C   UNL     1       9.320  13.285  43.915  0.00  0.00    +0.000 A 
ATOM     12  O   UNL     1       8.534  12.023  42.195  0.00  0.00    +0.000 OA
ATOM     13  C   UNL     1       8.066  13.834  43.517  0.00  0.00    +0.000 A 
ATOM     14  C   UNL     1       7.622  13.008  42.510  0.00  0.00    +0.000 A 
ENDROOT
TORSDOF 0
ENDMDL
MODEL 4
REMARK VINA RESULT:    -5.314      2.724      4.946
REMARK INTER + INTRA:          -5.314
REMARK INTER:                  -5.314
REMARK INTRA:                   0.000
REMARK UNBOUND:                 0.000
REMARK  Name = opt57.pdb
REMARK  0 active torsions:
REMARK  status: ('A' for Active; 'I' for Inactive)
REMARK                            x       y       z     vdW  Elec       q    Type
REMARK                         _______ _______ _______ _____ _____    ______ ____
ROOT
ATOM      1  O   UNL     1      13.643  10.672  44.416  0.00  0.00    +0.000 OA
ATOM      2  C   UNL     1      13.802  11.874  44.447  0.00  0.00    +0.000 A 
ATOM      3  O   UNL     1      12.747  12.725  44.450  0.00  0.00    +0.000 OA
ATOM      4  C   UNL     1      15.122  12.521  44.490  0.00  0.00    +0.000 A 
ATOM      5  C   UNL     1      12.832  14.104  44.461  0.00  0.00    +0.000 A 
ATOM      6  C   UNL     1      15.271  13.947  44.554  0.00  0.00    +0.000 A 
ATOM      7  C   UNL     1      14.126  14.733  44.553  0.00  0.00    +0.000 A 
ATOM      8  C   UNL     1      11.601  14.852  44.427  0.00  0.00    +0.000 A 
ATOM      9  C   UNL     1      14.198  16.121  44.649  0.00  0.00    +0.000 A 
ATOM     10  C   UNL     1      11.678  16.270  44.681  0.00  0.00    +0.000 A 
ATOM     11  C   UNL     1      12.972  16.874  44.675  0.00  0.00    +0.000 A 
ATOM     12  O   UNL     1      10.774  17.164  44.170  0.00  0.00    +0.000 OA
ATOM     13  C   UNL     1      12.824  18.186  44.138  0.00  0.00    +0.000 A 
ATOM     14  C   UNL     1      11.476  18.319  43.893  0.00  0.00    +0.000 A 
ENDROOT
TORSDOF 0
ENDMDL
MODEL 5
REMARK VINA RESULT:    -5.281      1.553      2.209
REMARK INTER + INTRA:          -5.281
REMARK INTER:                  -5.281
REMARK INTRA:                   0.000
REMARK UNBOUND:                 0.000
REMARK  Name = opt57.pdb
REMARK  0 active torsions:
REMARK  status: ('A' for Active; 'I' for Inactive)
REMARK                            x       y       z     vdW  Elec       q    Type
REMARK                         _______ _______ _______ _____ _____    ______ ____
ROOT
ATOM      1  O   UNL     1       9.969  11.708  42.572  0.00  0.00    +0.000 OA
ATOM      2  C   UNL     1      10.791  12.430  43.094  0.00  0.00    +0.000 A 
ATOM      3  O   UNL     1      12.105  12.358  42.766  0.00  0.00    +0.000 OA
ATOM      4  C   UNL     1      10.461  13.440  44.111  0.00  0.00    +0.000 A 
ATOM      5  C   UNL     1      13.112  13.123  43.323  0.00  0.00    +0.000 A 
ATOM      6  C   UNL     1      11.457  14.297  44.688  0.00  0.00    +0.000 A 
ATOM      7  C   UNL     1      12.776  14.146  44.283  0.00  0.00    +0.000 A 
ATOM      8  C   UNL     1      14.461  12.885  42.875  0.00  0.00    +0.000 A 
ATOM      9  C   UNL     1      13.787  14.968  44.776  0.00  0.00    +0.000 A 
ATOM     10  C   UNL     1      15.470  13.837  43.271  0.00  0.00    +0.000 A 
ATOM     11  C   UNL     1      15.128  14.777  44.290  0.00  0.00    +0.000 A 
ATOM     12  O   UNL     1      16.791  13.500  43.411  0.00  0.00    +0.000 OA
ATOM     13  C   UNL     1      16.303  15.008  45.064  0.00  0.00    +0.000 A 
ATOM     14  C   UNL     1      17.279  14.247  44.462  0.00  0.00    +0.000 A 
ENDROOT
TORSDOF 0
ENDMDL
MODEL 6
REMARK VINA RESULT:    -5.250      1.885      4.885
REMARK INTER + INTRA:          -5.250
REMARK INTER:                  -5.250
REMARK INTRA:                   0.000
REMARK UNBOUND:                 0.000
REMARK  Name = opt57.pdb
REMARK  0 active torsions:
REMARK  status: ('A' for Active; 'I' for Inactive)
REMARK                            x       y       z     vdW  Elec       q    Type
REMARK                         _______ _______ _______ _____ _____    ______ ____
ROOT
ATOM      1  O   UNL     1      14.239  10.971  44.411  0.00  0.00    +0.000 OA
ATOM      2  C   UNL     1      13.688  12.051  44.389  0.00  0.00    +0.000 A 
ATOM      3  O   UNL     1      12.367  12.162  44.104  0.00  0.00    +0.000 OA
ATOM      4  C   UNL     1      14.372  13.322  44.667  0.00  0.00    +0.000 A 
ATOM      5  C   UNL     1      11.661  13.349  44.034  0.00  0.00    +0.000 A 
ATOM      6  C   UNL     1      13.680  14.580  44.658  0.00  0.00    +0.000 A 
ATOM      7  C   UNL     1      12.325  14.588  44.355  0.00  0.00    +0.000 A 
ATOM      8  C   UNL     1      10.266  13.279  43.683  0.00  0.00    +0.000 A 
ATOM      9  C   UNL     1      11.586  15.768  44.364  0.00  0.00    +0.000 A 
ATOM     10  C   UNL     1       9.480  14.477  43.845  0.00  0.00    +0.000 A 
ATOM     11  C   UNL     1      10.178  15.701  44.073  0.00  0.00    +0.000 A 
ATOM     12  O   UNL     1       8.367  14.741  43.088  0.00  0.00    +0.000 OA
ATOM     13  C   UNL     1       9.443  16.736  43.423  0.00  0.00    +0.000 A 
ATOM     14  C   UNL     1       8.344  16.105  42.886  0.00  0.00    +0.000 A 
ENDROOT
TORSDOF 0
ENDMDL
MODEL 7
REMARK VINA RESULT:    -5.234      1.146      4.950
REMARK INTER + INTRA:          -5.234
REMARK INTER:                  -5.234
REMARK INTRA:                   0.000
REMARK UNBOUND:                 0.000
REMARK  Name = opt57.pdb
REMARK  0 active torsions:
REMARK  status: ('A' for Active; 'I' for Inactive)
REMARK                            x       y       z     vdW  Elec       q    Type
REMARK                         _______ _______ _______ _____ _____    ______ ____
ROOT
ATOM      1  O   UNL     1      16.471  13.486  42.537  0.00  0.00    +0.000 OA
ATOM      2  C   UNL     1      15.368  13.665  43.010  0.00  0.00    +0.000 A 
ATOM      3  O   UNL     1      14.297  12.944  42.594  0.00  0.00    +0.000 OA
ATOM      4  C   UNL     1      15.081  14.652  44.061  0.00  0.00    +0.000 A 
ATOM      5  C   UNL     1      13.004  13.094  43.057  0.00  0.00    +0.000 A 
ATOM      6  C   UNL     1      13.768  14.817  44.616  0.00  0.00    +0.000 A 
ATOM      7  C   UNL     1      12.737  14.029  44.123  0.00  0.00    +0.000 A 
ATOM      8  C   UNL     1      11.982  12.262  42.475  0.00  0.00    +0.000 A 
ATOM      9  C   UNL     1      11.447  14.112  44.642  0.00  0.00    +0.000 A 
ATOM     10  C   UNL     1      10.692  12.245  43.119  0.00  0.00    +0.000 A 
ATOM     11  C   UNL     1      10.432  13.243  44.107  0.00  0.00    +0.000 A 
ATOM     12  O   UNL     1       9.529  11.986  42.442  0.00  0.00    +0.000 OA
ATOM     13  C   UNL     1       9.052  13.586  44.009  0.00  0.00    +0.000 A 
ATOM     14  C   UNL     1       8.553  12.768  43.021  0.00  0.00    +0.000 A 
ENDROOT
TORSDOF 0
ENDMDL
MODEL 8
REMARK VINA RESULT:    -5.095      3.150      4.937
REMARK INTER + INTRA:          -5.095
REMARK INTER:                  -5.095
REMARK INTRA:                   0.000
REMARK UNBOUND:                 0.000
REMARK  Name = opt57.pdb
REMARK  0 active torsions:
REMARK  status: ('A' for Active; 'I' for Inactive)
REMARK                            x       y       z     vdW  Elec       q    Type
REMARK                         _______ _______ _______ _____ _____    ______ ____
ROOT
ATOM      1  O   UNL     1      13.437  11.162  44.441  0.00  0.00    +0.000 OA
ATOM      2  C   UNL     1      13.650  12.354  44.513  0.00  0.00    +0.000 A 
ATOM      3  O   UNL     1      14.891  12.834  44.776  0.00  0.00    +0.000 OA
ATOM      4  C   UNL     1      12.615  13.381  44.322  0.00  0.00    +0.000 A 
ATOM      5  C   UNL     1      15.222  14.171  44.898  0.00  0.00    +0.000 A 
ATOM      6  C   UNL     1      12.910  14.784  44.387  0.00  0.00    +0.000 A 
ATOM      7  C   UNL     1      14.213  15.174  44.661  0.00  0.00    +0.000 A 
ATOM      8  C   UNL     1      16.589  14.497  45.215  0.00  0.00    +0.000 A 
ATOM      9  C   UNL     1      14.576  16.519  44.703  0.00  0.00    +0.000 A 
ATOM     10  C   UNL     1      16.984  15.879  45.105  0.00  0.00    +0.000 A 
ATOM     11  C   UNL     1      15.951  16.854  44.961  0.00  0.00    +0.000 A 
ATOM     12  O   UNL     1      17.998  16.421  45.852  0.00  0.00    +0.000 OA
ATOM     13  C   UNL     1      16.376  18.026  45.653  0.00  0.00    +0.000 A 
ATOM     14  C   UNL     1      17.630  17.721  46.130  0.00  0.00    +0.000 A 
ENDROOT
TORSDOF 0
ENDMDL
MODEL 9
REMARK VINA RESULT:    -5.087      2.149      5.713
REMARK INTER + INTRA:          -5.087
REMARK INTER:                  -5.087
REMARK INTRA:                   0.000
REMARK UNBOUND:                 0.000
REMARK  Name = opt57.pdb
REMARK  0 active torsions:
REMARK  status: ('A' for Active; 'I' for Inactive)
REMARK                            x       y       z     vdW  Elec       q    Type
REMARK                         _______ _______ _______ _____ _____    ______ ____
ROOT
ATOM      1  O   UNL     1      18.643  14.402  44.059  0.00  0.00    +0.000 OA
ATOM      2  C   UNL     1      17.441  14.509  44.176  0.00  0.00    +0.000 A 
ATOM      3  O   UNL     1      16.614  13.457  43.953  0.00  0.00    +0.000 OA
ATOM      4  C   UNL     1      16.766  15.756  44.565  0.00  0.00    +0.000 A 
ATOM      5  C   UNL     1      15.235  13.491  44.039  0.00  0.00    +0.000 A 
ATOM      6  C   UNL     1      15.342  15.838  44.719  0.00  0.00    +0.000 A 
ATOM      7  C   UNL     1      14.583  14.703  44.470  0.00  0.00    +0.000 A 
ATOM      8  C   UNL     1      14.515  12.281  43.735  0.00  0.00    +0.000 A 
ATOM      9  C   UNL     1      13.199  14.703  44.635  0.00  0.00    +0.000 A 
ATOM     10  C   UNL     1      13.109  12.248  44.056  0.00  0.00    +0.000 A 
ATOM     11  C   UNL     1      12.476  13.483  44.390  0.00  0.00    +0.000 A 
ATOM     12  O   UNL     1      12.212  11.466  43.374  0.00  0.00    +0.000 OA
ATOM     13  C   UNL     1      11.144  13.427  43.885  0.00  0.00    +0.000 A 
ATOM     14  C   UNL     1      11.031  12.176  43.323  0.00  0.00    +0.000 A 
ENDROOT
TORSDOF 0
ENDMDL
MODEL 10
REMARK VINA RESULT:    -5.024      1.582      2.331
REMARK INTER + INTRA:          -5.024
REMARK INTER:                  -5.024
REMARK INTRA:                   0.000
REMARK UNBOUND:                 0.000
REMARK  Name = opt57.pdb
REMARK  0 active torsions:
REMARK  status: ('A' for Active; 'I' for Inactive)
REMARK                            x       y       z     vdW  Elec       q    Type
REMARK                         _______ _______ _______ _____ _____    ______ ____
ROOT
ATOM      1  O   UNL     1       8.089  13.372  44.477  0.00  0.00    +0.000 OA
ATOM      2  C   UNL     1       9.212  13.145  44.079  0.00  0.00    +0.000 A 
ATOM      3  O   UNL     1      10.300  13.653  44.710  0.00  0.00    +0.000 OA
ATOM      4  C   UNL     1       9.509  12.311  42.905  0.00  0.00    +0.000 A 
ATOM      5  C   UNL     1      11.611  13.467  44.316  0.00  0.00    +0.000 A 
ATOM      6  C   UNL     1      10.852  12.042  42.479  0.00  0.00    +0.000 A 
ATOM      7  C   UNL     1      11.899  12.609  43.194  0.00  0.00    +0.000 A 
ATOM      8  C   UNL     1      12.641  14.113  45.089  0.00  0.00    +0.000 A 
ATOM      9  C   UNL     1      13.228  12.360  42.857  0.00  0.00    +0.000 A 
ATOM     10  C   UNL     1      14.007  13.728  44.830  0.00  0.00    +0.000 A 
ATOM     11  C   UNL     1      14.265  12.953  43.659  0.00  0.00    +0.000 A 
ATOM     12  O   UNL     1      15.067  14.571  45.040  0.00  0.00    +0.000 OA
ATOM     13  C   UNL     1      15.537  13.356  43.157  0.00  0.00    +0.000 A 
ATOM     14  C   UNL     1      15.989  14.299  44.051  0.00  0.00    +0.000 A 
ENDROOT
TORSDOF 0
ENDMDL
MODEL 11
REMARK VINA RESULT:    -4.903      2.803      4.496
REMARK INTER + INTRA:          -4.903
REMARK INTER:                  -4.903
REMARK INTRA:                   0.000
REMARK UNBOUND:                 0.000
REMARK  Name = opt57.pdb
REMARK  0 active torsions:
REMARK  status: ('A' for Active; 'I' for Inactive)
REMARK                            x       y       z     vdW  Elec       q    Type
REMARK                         _______ _______ _______ _____ _____    ______ ____
ROOT
ATOM      1  O   UNL     1      11.915  12.539  42.507  0.00  0.00    +0.000 OA
ATOM      2  C   UNL     1      12.910  12.908  43.094  0.00  0.00    +0.000 A 
ATOM      3  O   UNL     1      14.037  13.256  42.424  0.00  0.00    +0.000 OA
ATOM      4  C   UNL     1      12.999  13.022  44.558  0.00  0.00    +0.000 A 
ATOM      5  C   UNL     1      15.220  13.666  43.008  0.00  0.00    +0.000 A 
ATOM      6  C   UNL     1      14.185  13.490  45.216  0.00  0.00    +0.000 A 
ATOM      7  C   UNL     1      15.286  13.823  44.440  0.00  0.00    +0.000 A 
ATOM      8  C   UNL     1      16.329  13.964  42.137  0.00  0.00    +0.000 A 
ATOM      9  C   UNL     1      16.457  14.318  45.012  0.00  0.00    +0.000 A 
ATOM     10  C   UNL     1      17.475  14.617  42.722  0.00  0.00    +0.000 A 
ATOM     11  C   UNL     1      17.549  14.674  44.146  0.00  0.00    +0.000 A 
ATOM     12  O   UNL     1      18.743  14.475  42.222  0.00  0.00    +0.000 OA
ATOM     13  C   UNL     1      18.925  14.563  44.503  0.00  0.00    +0.000 A 
ATOM     14  C   UNL     1      19.597  14.489  43.304  0.00  0.00    +0.000 A 
ENDROOT
TORSDOF 0
ENDMDL
MODEL 12
REMARK VINA RESULT:    -4.839      2.008      2.865
REMARK INTER + INTRA:          -4.839
REMARK INTER:                  -4.839
REMARK INTRA:                   0.000
REMARK UNBOUND:                 0.000
REMARK  Name = opt57.pdb
REMARK  0 active torsions:
REMARK  status: ('A' for Active; 'I' for Inactive)
REMARK                            x       y       z     vdW  Elec       q    Type
REMARK                         _______ _______ _______ _____ _____    ______ ____
ROOT
ATOM      1  O   UNL     1       9.770  13.024  41.538  0.00  0.00    +0.000 OA
ATOM      2  C   UNL     1      10.755  12.864  42.227  0.00  0.00    +0.000 A 
ATOM      3  O   UNL     1      11.494  13.917  42.656  0.00  0.00    +0.000 OA
ATOM      4  C   UNL     1      11.239  11.546  42.666  0.00  0.00    +0.000 A 
ATOM      5  C   UNL     1      12.641  13.830  43.423  0.00  0.00    +0.000 A 
ATOM      6  C   UNL     1      12.394  11.398  43.504  0.00  0.00    +0.000 A 
ATOM      7  C   UNL     1      13.083  12.539  43.892  0.00  0.00    +0.000 A 
ATOM      8  C   UNL     1      13.318  15.056  43.758  0.00  0.00    +0.000 A 
ATOM      9  C   UNL     1      14.190  12.469  44.734  0.00  0.00    +0.000 A 
ATOM     10  C   UNL     1      14.364  14.987  44.750  0.00  0.00    +0.000 A 
ATOM     11  C   UNL     1      14.838  13.694  45.123  0.00  0.00    +0.000 A 
ATOM     12  O   UNL     1      15.416  15.866  44.778  0.00  0.00    +0.000 OA
ATOM     13  C   UNL     1      16.235  13.815  45.386  0.00  0.00    +0.000 A 
ATOM     14  C   UNL     1      16.515  15.149  45.203  0.00  0.00    +0.000 A 
ENDROOT
TORSDOF 0
ENDMDL
MODEL 13
REMARK VINA RESULT:    -4.832      2.948      5.957
REMARK INTER + INTRA:          -4.832
REMARK INTER:                  -4.832
REMARK INTRA:                   0.000
REMARK UNBOUND:                 0.000
REMARK  Name = opt57.pdb
REMARK  0 active torsions:
REMARK  status: ('A' for Active; 'I' for Inactive)
REMARK                            x       y       z     vdW  Elec       q    Type
REMARK                         _______ _______ _______ _____ _____    ______ ____
ROOT
ATOM      1  O   UNL     1      18.039  17.090  45.544  0.00  0.00    +0.000 OA
ATOM      2  C   UNL     1      16.926  16.701  45.261  0.00  0.00    +0.000 A 
ATOM      3  O   UNL     1      16.609  15.383  45.295  0.00  0.00    +0.000 OA
ATOM      4  C   UNL     1      15.826  17.593  44.865  0.00  0.00    +0.000 A 
ATOM      5  C   UNL     1      15.378  14.847  44.969  0.00  0.00    +0.000 A 
ATOM      6  C   UNL     1      14.513  17.099  44.563  0.00  0.00    +0.000 A 
ATOM      7  C   UNL     1      14.289  15.730  44.629  0.00  0.00    +0.000 A 
ATOM      8  C   UNL     1      15.232  13.415  45.030  0.00  0.00    +0.000 A 
ATOM      9  C   UNL     1      13.030  15.187  44.384  0.00  0.00    +0.000 A 
ATOM     10  C   UNL     1      13.897  12.879  44.927  0.00  0.00    +0.000 A 
ATOM     11  C   UNL     1      12.860  13.763  44.501  0.00  0.00    +0.000 A 
ATOM     12  O   UNL     1      13.638  11.628  44.432  0.00  0.00    +0.000 OA
ATOM     13  C   UNL     1      11.946  12.996  43.720  0.00  0.00    +0.000 A 
ATOM     14  C   UNL     1      12.443  11.714  43.750  0.00  0.00    +0.000 A 
ENDROOT
TORSDOF 0
ENDMDL
MODEL 14
REMARK VINA RESULT:    -4.801      2.169      3.404
REMARK INTER + INTRA:          -4.801
REMARK INTER:                  -4.801
REMARK INTRA:                   0.000
REMARK UNBOUND:                 0.000
REMARK  Name = opt57.pdb
REMARK  0 active torsions:
REMARK  status: ('A' for Active; 'I' for Inactive)
REMARK                            x       y       z     vdW  Elec       q    Type
REMARK                         _______ _______ _______ _____ _____    ______ ____
ROOT
ATOM      1  O   UNL     1      11.330  11.405  43.308  0.00  0.00    +0.000 OA
ATOM      2  C   UNL     1      11.976  12.381  43.628  0.00  0.00    +0.000 A 
ATOM      3  O   UNL     1      13.323  12.321  43.767  0.00  0.00    +0.000 OA
ATOM      4  C   UNL     1      11.384  13.702  43.887  0.00  0.00    +0.000 A 
ATOM      5  C   UNL     1      14.136  13.372  44.148  0.00  0.00    +0.000 A 
ATOM      6  C   UNL     1      12.183  14.841  44.237  0.00  0.00    +0.000 A 
ATOM      7  C   UNL     1      13.557  14.676  44.353  0.00  0.00    +0.000 A 
ATOM      8  C   UNL     1      15.548  13.115  44.277  0.00  0.00    +0.000 A 
ATOM      9  C   UNL     1      14.395  15.748  44.654  0.00  0.00    +0.000 A 
ATOM     10  C   UNL     1      16.418  14.254  44.436  0.00  0.00    +0.000 A 
ATOM     11  C   UNL     1      15.813  15.514  44.727  0.00  0.00    +0.000 A 
ATOM     12  O   UNL     1      17.619  14.183  45.092  0.00  0.00    +0.000 OA
ATOM     13  C   UNL     1      16.699  16.219  45.593  0.00  0.00    +0.000 A 
ATOM     14  C   UNL     1      17.785  15.388  45.742  0.00  0.00    +0.000 A 
ENDROOT
TORSDOF 0
ENDMDL
MODEL 15
REMARK VINA RESULT:    -4.782      2.978      5.222
REMARK INTER + INTRA:          -4.782
REMARK INTER:                  -4.782
REMARK INTRA:                   0.000
REMARK UNBOUND:                 0.000
REMARK  Name = opt57.pdb
REMARK  0 active torsions:
REMARK  status: ('A' for Active; 'I' for Inactive)
REMARK                            x       y       z     vdW  Elec       q    Type
REMARK                         _______ _______ _______ _____ _____    ______ ____
ROOT
ATOM      1  O   UNL     1      15.678  18.269  45.630  0.00  0.00    +0.000 OA
ATOM      2  C   UNL     1      14.713  17.594  45.341  0.00  0.00    +0.000 A 
ATOM      3  O   UNL     1      14.833  16.273  45.061  0.00  0.00    +0.000 OA
ATOM      4  C   UNL     1      13.341  18.120  45.271  0.00  0.00    +0.000 A 
ATOM      5  C   UNL     1      13.796  15.433  44.701  0.00  0.00    +0.000 A 
ATOM      6  C   UNL     1      12.218  17.286  44.953  0.00  0.00    +0.000 A 
ATOM      7  C   UNL     1      12.447  15.943  44.683  0.00  0.00    +0.000 A 
ATOM      8  C   UNL     1      14.116  14.061  44.405  0.00  0.00    +0.000 A 
ATOM      9  C   UNL     1      11.398  15.070  44.402  0.00  0.00    +0.000 A 
ATOM     10  C   UNL     1      13.016  13.137  44.268  0.00  0.00    +0.000 A 
ATOM     11  C   UNL     1      11.702  13.684  44.162  0.00  0.00    +0.000 A 
ATOM     12  O   UNL     1      13.087  12.011  43.489  0.00  0.00    +0.000 OA
ATOM     13  C   UNL     1      10.962  12.840  43.282  0.00  0.00    +0.000 A 
ATOM     14  C   UNL     1      11.834  11.830  42.944  0.00  0.00    +0.000 A 
ENDROOT
TORSDOF 0
ENDMDL
MODEL 16
REMARK VINA RESULT:    -4.776      3.117      5.813
REMARK INTER + INTRA:          -4.776
REMARK INTER:                  -4.776
REMARK INTRA:                   0.000
REMARK UNBOUND:                 0.000
REMARK  Name = opt57.pdb
REMARK  0 active torsions:
REMARK  status: ('A' for Active; 'I' for Inactive)
REMARK                            x       y       z     vdW  Elec       q    Type
REMARK                         _______ _______ _______ _____ _____    ______ ____
ROOT
ATOM      1  O   UNL     1      17.261  17.472  45.014  0.00  0.00    +0.000 OA
ATOM      2  C   UNL     1      16.080  17.204  44.954  0.00  0.00    +0.000 A 
ATOM      3  O   UNL     1      15.654  15.925  44.804  0.00  0.00    +0.000 OA
ATOM      4  C   UNL     1      15.009  18.208  45.042  0.00  0.00    +0.000 A 
ATOM      5  C   UNL     1      14.334  15.528  44.704  0.00  0.00    +0.000 A 
ATOM      6  C   UNL     1      13.620  17.849  44.995  0.00  0.00    +0.000 A 
ATOM      7  C   UNL     1      13.287  16.511  44.840  0.00  0.00    +0.000 A 
ATOM      8  C   UNL     1      14.068  14.125  44.513  0.00  0.00    +0.000 A 
ATOM      9  C   UNL     1      11.959  16.090  44.822  0.00  0.00    +0.000 A 
ATOM     10  C   UNL     1      12.702  13.683  44.650  0.00  0.00    +0.000 A 
ATOM     11  C   UNL     1      11.684  14.683  44.691  0.00  0.00    +0.000 A 
ATOM     12  O   UNL     1      12.210  12.583  43.997  0.00  0.00    +0.000 OA
ATOM     13  C   UNL     1      10.537  14.147  44.034  0.00  0.00    +0.000 A 
ATOM     14  C   UNL     1      10.899  12.869  43.677  0.00  0.00    +0.000 A 
ENDROOT
TORSDOF 0
ENDMDL
MODEL 17
REMARK VINA RESULT:    -4.748      3.270      4.986
REMARK INTER + INTRA:          -4.748
REMARK INTER:                  -4.748
REMARK INTRA:                   0.000
REMARK UNBOUND:                 0.000
REMARK  Name = opt57.pdb
REMARK  0 active torsions:
REMARK  status: ('A' for Active; 'I' for Inactive)
REMARK                            x       y       z     vdW  Elec       q    Type
REMARK                         _______ _______ _______ _____ _____    ______ ____
ROOT
ATOM      1  O   UNL     1      11.287  13.516  44.483  0.00  0.00    +0.000 OA
ATOM      2  C   UNL     1      12.492  13.617  44.575  0.00  0.00    +0.000 A 
ATOM      3  O   UNL     1      13.092  14.828  44.685  0.00  0.00    +0.000 OA
ATOM      4  C   UNL     1      13.409  12.468  44.581  0.00  0.00    +0.000 A 
ATOM      5  C   UNL     1      14.455  15.041  44.771  0.00  0.00    +0.000 A 
ATOM      6  C   UNL     1      14.829  12.624  44.719  0.00  0.00    +0.000 A 
ATOM      7  C   UNL     1      15.346  13.908  44.828  0.00  0.00    +0.000 A 
ATOM      8  C   UNL     1      14.918  16.403  44.849  0.00  0.00    +0.000 A 
ATOM      9  C   UNL     1      16.711  14.130  45.000  0.00  0.00    +0.000 A 
ATOM     10  C   UNL     1      16.305  16.615  45.181  0.00  0.00    +0.000 A 
ATOM     11  C   UNL     1      17.176  15.485  45.138  0.00  0.00    +0.000 A 
ATOM     12  O   UNL     1      17.003  17.722  44.773  0.00  0.00    +0.000 OA
ATOM     13  C   UNL     1      18.447  15.947  44.686  0.00  0.00    +0.000 A 
ATOM     14  C   UNL     1      18.294  17.304  44.525  0.00  0.00    +0.000 A 
ENDROOT
TORSDOF 0
ENDMDL
MODEL 18
REMARK VINA RESULT:    -4.604      3.286      4.302
REMARK INTER + INTRA:          -4.604
REMARK INTER:                  -4.604
REMARK INTRA:                   0.000
REMARK UNBOUND:                 0.000
REMARK  Name = opt57.pdb
REMARK  0 active torsions:
REMARK  status: ('A' for Active; 'I' for Inactive)
REMARK                            x       y       z     vdW  Elec       q    Type
REMARK                         _______ _______ _______ _____ _____    ______ ____
ROOT
ATOM      1  O   UNL     1       6.454   9.011  43.479  0.00  0.00    +0.000 OA
ATOM      2  C   UNL     1       6.574  10.214  43.569  0.00  0.00    +0.000 A 
ATOM      3  O   UNL     1       7.758  10.826  43.318  0.00  0.00    +0.000 OA
ATOM      4  C   UNL     1       5.476  11.118  43.943  0.00  0.00    +0.000 A 
ATOM      5  C   UNL     1       7.993  12.184  43.416  0.00  0.00    +0.000 A 
ATOM      6  C   UNL     1       5.648  12.541  44.012  0.00  0.00    +0.000 A 
ATOM      7  C   UNL     1       6.901  13.071  43.735  0.00  0.00    +0.000 A 
ATOM      8  C   UNL     1       9.327  12.655  43.144  0.00  0.00    +0.000 A 
ATOM      9  C   UNL     1       7.128  14.445  43.749  0.00  0.00    +0.000 A 
ATOM     10  C   UNL     1       9.514  14.079  43.010  0.00  0.00    +0.000 A 
ATOM     11  C   UNL     1       8.443  14.929  43.421  0.00  0.00    +0.000 A 
ATOM     12  O   UNL     1      10.701  14.700  43.297  0.00  0.00    +0.000 OA
ATOM     13  C   UNL     1       9.026  16.107  43.974  0.00  0.00    +0.000 A 
ATOM     14  C   UNL     1      10.383  15.931  43.833  0.00  0.00    +0.000 A 
ENDROOT
TORSDOF 0
ENDMDL
MODEL 19
REMARK VINA RESULT:    -4.477      2.046      5.392
REMARK INTER + INTRA:          -4.477
REMARK INTER:                  -4.477
REMARK INTRA:                   0.000
REMARK UNBOUND:                 0.000
REMARK  Name = opt57.pdb
REMARK  0 active torsions:
REMARK  status: ('A' for Active; 'I' for Inactive)
REMARK                            x       y       z     vdW  Elec       q    Type
REMARK                         _______ _______ _______ _____ _____    ______ ____
ROOT
ATOM      1  O   UNL     1      13.584  14.688  44.557  0.00  0.00    +0.000 OA
ATOM      2  C   UNL     1      12.405  14.788  44.293  0.00  0.00    +0.000 A 
ATOM      3  O   UNL     1      11.639  13.694  44.055  0.00  0.00    +0.000 OA
ATOM      4  C   UNL     1      11.694  16.073  44.210  0.00  0.00    +0.000 A 
ATOM      5  C   UNL     1      10.297  13.713  43.726  0.00  0.00    +0.000 A 
ATOM      6  C   UNL     1      10.290  16.151  43.922  0.00  0.00    +0.000 A 
ATOM      7  C   UNL     1       9.594  14.972  43.694  0.00  0.00    +0.000 A 
ATOM      8  C   UNL     1       9.651  12.451  43.473  0.00  0.00    +0.000 A 
ATOM      9  C   UNL     1       8.223  14.974  43.445  0.00  0.00    +0.000 A 
ATOM     10  C   UNL     1       8.212  12.451  43.369  0.00  0.00    +0.000 A 
ATOM     11  C   UNL     1       7.557  13.713  43.249  0.00  0.00    +0.000 A 
ATOM     12  O   UNL     1       7.524  11.527  42.627  0.00  0.00    +0.000 OA
ATOM     13  C   UNL     1       6.428  13.525  42.399  0.00  0.00    +0.000 A 
ATOM     14  C   UNL     1       6.436  12.184  42.092  0.00  0.00    +0.000 A 
ENDROOT
TORSDOF 0
ENDMDL
MODEL 20
REMARK VINA RESULT:    -4.290      2.548      5.824
REMARK INTER + INTRA:          -4.290
REMARK INTER:                  -4.290
REMARK INTRA:                   0.000
REMARK UNBOUND:                 0.000
REMARK  Name = opt57.pdb
REMARK  0 active torsions:
REMARK  status: ('A' for Active; 'I' for Inactive)
REMARK                            x       y       z     vdW  Elec       q    Type
REMARK                         _______ _______ _______ _____ _____    ______ ____
ROOT
ATOM      1  O   UNL     1      17.067  16.877  45.384  0.00  0.00    +0.000 OA
ATOM      2  C   UNL     1      16.294  15.965  45.180  0.00  0.00    +0.000 A 
ATOM      3  O   UNL     1      15.194  16.133  44.405  0.00  0.00    +0.000 OA
ATOM      4  C   UNL     1      16.463  14.613  45.731  0.00  0.00    +0.000 A 
ATOM      5  C   UNL     1      14.249  15.162  44.136  0.00  0.00    +0.000 A 
ATOM      6  C   UNL     1      15.542  13.551  45.446  0.00  0.00    +0.000 A 
ATOM      7  C   UNL     1      14.446  13.824  44.639  0.00  0.00    +0.000 A 
ATOM      8  C   UNL     1      13.123  15.530  43.317  0.00  0.00    +0.000 A 
ATOM      9  C   UNL     1      13.532  12.831  44.293  0.00  0.00    +0.000 A 
ATOM     10  C   UNL     1      12.272  14.467  42.840  0.00  0.00    +0.000 A 
ATOM     11  C   UNL     1      12.436  13.175  43.426  0.00  0.00    +0.000 A 
ATOM     12  O   UNL     1      10.945  14.653  42.552  0.00  0.00    +0.000 OA
ATOM     13  C   UNL     1      11.146  12.570  43.484  0.00  0.00    +0.000 A 
ATOM     14  C   UNL     1      10.298  13.487  42.906  0.00  0.00    +0.000 A 
ENDROOT
TORSDOF 0
ENDMDL
