REMARK  Name = corr_lig_vina.pdb
REMARK  5 active torsions:
REMARK  status: ('A' for Active; 'I' for Inactive)
REMARK    1  A    between atoms: O_1  and  C_2
REMARK    2  A    between atoms: C_3  and  C_6
REMARK    3  A    between atoms: C_6  and  C_9
REMARK    4  A    between atoms: C_6  and  C_10
REMARK    5  A    between atoms: C_7  and  C_11
REMARK                            x       y       z     vdW  Elec       q    Type
REMARK                         _______ _______ _______ _____ _____    ______ ____
ROOT
ATOM      1  C   UNL     1      -1.144   0.277   0.043  0.00  0.00    +0.000 A 
ATOM      2  C   UNL     1      -1.092  -1.127  -0.025  0.00  0.00    +0.000 A 
ATOM      3  C   UNL     1       0.031   1.029   0.054  0.00  0.00    +0.000 A 
ATOM      4  C   UNL     1       0.165  -1.743  -0.074  0.00  0.00    +0.000 A 
ATOM      5  C   UNL     1       1.275   0.403   0.011  0.00  0.00    +0.000 A 
ATOM      6  C   UNL     1       1.335  -0.988  -0.046  0.00  0.00    +0.000 A 
ATOM      7  C   UNL     1       2.557   1.217   0.020  0.00  0.00    +0.000 C 
ENDROOT
BRANCH   2   8
ATOM      8  C   UNL     1      -2.377  -1.963  -0.105  0.00  0.00    +0.000 C 
ATOM      9  C   UNL     1      -2.795  -2.178  -1.575  0.00  0.00    +0.000 C 
ATOM     10  C   UNL     1      -2.293  -3.324   0.623  0.00  0.00    +0.000 C 
ENDBRANCH   2   8
BRANCH   1  11
ATOM     11  O   UNL     1      -2.332   0.944   0.088  0.00  0.00    +0.000 OA
ATOM     12  H   UNL     1      -3.064   0.307   0.171  0.00  0.00    +0.000 HD
ENDBRANCH   1  11
TORSDOF 2
