REMARK  Name = corr_lig_vina.pdb
REMARK  1 active torsions:
REMARK  status: ('A' for Active; 'I' for Inactive)
REMARK    1  A    between atoms: C_9  and  O_12
REMARK                            x       y       z     vdW  Elec       q    Type
REMARK                         _______ _______ _______ _____ _____    ______ ____
ROOT
ATOM      1  O   UNL     1       1.058  -0.129  -0.025  0.00  0.00    +0.000 OA
ATOM      2  C   UNL     1       2.275  -0.098  -0.025  0.00  0.00    +0.000 C 
ATOM      3  C   UNL     1       3.003   1.276  -0.026  0.00  0.00    +0.000 C 
ATOM      4  C   UNL     1       3.108  -1.337  -0.024  0.00  0.00    +0.000 A 
ATOM      5  O   UNL     1       2.379   2.320  -0.025  0.00  0.00    +0.000 OA
ATOM      6  C   UNL     1       4.466   1.188  -0.027  0.00  0.00    +0.000 C 
ATOM      7  C   UNL     1       4.509  -1.259  -0.025  0.00  0.00    +0.000 A 
ATOM      8  C   UNL     1       2.475  -2.585  -0.021  0.00  0.00    +0.000 A 
ATOM      9  C   UNL     1       5.202   0.021  -0.028  0.00  0.00    +0.000 C 
ATOM     10  C   UNL     1       5.247  -2.452  -0.024  0.00  0.00    +0.000 A 
ATOM     11  C   UNL     1       3.222  -3.758  -0.019  0.00  0.00    +0.000 A 
ATOM     12  C   UNL     1       4.610  -3.691  -0.021  0.00  0.00    +0.000 A 
ENDROOT
BRANCH   9  13
ATOM     13  O   UNL     1       6.550   0.016  -0.029  0.00  0.00    +0.000 OA
ATOM     14  H   UNL     1       6.857   0.942  -0.028  0.00  0.00    +0.000 HD
ENDBRANCH   9  13
TORSDOF 1
