MODEL 1
REMARK VINA RESULT:    -5.524      0.000      0.000
REMARK INTER + INTRA:          -5.685
REMARK INTER:                  -5.685
REMARK INTRA:                   0.000
REMARK UNBOUND:                 0.000
REMARK  Name = corr_lig_vina.pdb
REMARK  1 active torsions:
REMARK  status: ('A' for Active; 'I' for Inactive)
REMARK    1  A    between atoms: C_9  and  O_12
REMARK                            x       y       z     vdW  Elec       q    Type
REMARK                         _______ _______ _______ _____ _____    ______ ____
ROOT
ATOM      1  O   UNL     1      13.786  12.767  41.956  0.00  0.00    +0.000 OA
ATOM      2  C   UNL     1      14.457  13.051  42.932  0.00  0.00    +0.000 C 
ATOM      3  C   UNL     1      13.866  12.832  44.354  0.00  0.00    +0.000 C 
ATOM      4  C   UNL     1      15.838  13.606  42.820  0.00  0.00    +0.000 A 
ATOM      5  O   UNL     1      12.747  12.381  44.509  0.00  0.00    +0.000 OA
ATOM      6  C   UNL     1      14.764  13.210  45.449  0.00  0.00    +0.000 C 
ATOM      7  C   UNL     1      16.579  13.921  43.969  0.00  0.00    +0.000 A 
ATOM      8  C   UNL     1      16.391  13.810  41.551  0.00  0.00    +0.000 A 
ATOM      9  C   UNL     1      16.037  13.723  45.305  0.00  0.00    +0.000 C 
ATOM     10  C   UNL     1      17.873  14.441  43.812  0.00  0.00    +0.000 A 
ATOM     11  C   UNL     1      17.676  14.325  41.413  0.00  0.00    +0.000 A 
ATOM     12  C   UNL     1      18.417  14.641  42.545  0.00  0.00    +0.000 A 
ENDROOT
BRANCH   9  13
ATOM     13  O   UNL     1      16.808  14.049  46.362  0.00  0.00    +0.000 OA
ATOM     14  H   UNL     1      17.541  13.407  46.412  0.00  0.00    +0.000 HD
ENDBRANCH   9  13
TORSDOF 1
ENDMDL
MODEL 2
REMARK VINA RESULT:    -5.415      2.409      3.459
REMARK INTER + INTRA:          -5.574
REMARK INTER:                  -5.574
REMARK INTRA:                   0.000
REMARK UNBOUND:                 0.000
REMARK  Name = corr_lig_vina.pdb
REMARK  1 active torsions:
REMARK  status: ('A' for Active; 'I' for Inactive)
REMARK    1  A    between atoms: C_9  and  O_12
REMARK                            x       y       z     vdW  Elec       q    Type
REMARK                         _______ _______ _______ _____ _____    ______ ____
ROOT
ATOM      1  O   UNL     1      11.426  13.326  44.513  0.00  0.00    +0.000 OA
ATOM      2  C   UNL     1      12.634  13.480  44.517  0.00  0.00    +0.000 C 
ATOM      3  C   UNL     1      13.561  12.238  44.391  0.00  0.00    +0.000 C 
ATOM      4  C   UNL     1      13.270  14.825  44.639  0.00  0.00    +0.000 A 
ATOM      5  O   UNL     1      13.102  11.116  44.287  0.00  0.00    +0.000 OA
ATOM      6  C   UNL     1      14.994  12.545  44.409  0.00  0.00    +0.000 C 
ATOM      7  C   UNL     1      14.667  14.959  44.640  0.00  0.00    +0.000 A 
ATOM      8  C   UNL     1      12.456  15.957  44.751  0.00  0.00    +0.000 A 
ATOM      9  C   UNL     1      15.545  13.804  44.525  0.00  0.00    +0.000 C 
ATOM     10  C   UNL     1      15.216  16.245  44.757  0.00  0.00    +0.000 A 
ATOM     11  C   UNL     1      13.018  17.224  44.865  0.00  0.00    +0.000 A 
ATOM     12  C   UNL     1      14.400  17.368  44.868  0.00  0.00    +0.000 A 
ENDROOT
BRANCH   9  13
ATOM     13  O   UNL     1      16.877  14.013  44.534  0.00  0.00    +0.000 OA
ATOM     14  H   UNL     1      17.179  14.008  45.462  0.00  0.00    +0.000 HD
ENDBRANCH   9  13
TORSDOF 1
ENDMDL
MODEL 3
REMARK VINA RESULT:    -5.391      2.771      3.332
REMARK INTER + INTRA:          -5.548
REMARK INTER:                  -5.548
REMARK INTRA:                   0.000
REMARK UNBOUND:                 0.000
REMARK  Name = corr_lig_vina.pdb
REMARK  1 active torsions:
REMARK  status: ('A' for Active; 'I' for Inactive)
REMARK    1  A    between atoms: C_9  and  O_12
REMARK                            x       y       z     vdW  Elec       q    Type
REMARK                         _______ _______ _______ _____ _____    ______ ____
ROOT
ATOM      1  O   UNL     1      11.444  14.750  42.960  0.00  0.00    +0.000 OA
ATOM      2  C   UNL     1      12.178  13.850  43.326  0.00  0.00    +0.000 C 
ATOM      3  C   UNL     1      11.765  12.374  43.063  0.00  0.00    +0.000 C 
ATOM      4  C   UNL     1      13.472  14.106  44.026  0.00  0.00    +0.000 A 
ATOM      5  O   UNL     1      10.724  12.102  42.496  0.00  0.00    +0.000 OA
ATOM      6  C   UNL     1      12.725  11.379  43.549  0.00  0.00    +0.000 C 
ATOM      7  C   UNL     1      14.289  13.041  44.433  0.00  0.00    +0.000 A 
ATOM      8  C   UNL     1      13.865  15.426  44.272  0.00  0.00    +0.000 A 
ATOM      9  C   UNL     1      13.913  11.655  44.194  0.00  0.00    +0.000 C 
ATOM     10  C   UNL     1      15.495  13.334  45.087  0.00  0.00    +0.000 A 
ATOM     11  C   UNL     1      15.064  15.699  44.920  0.00  0.00    +0.000 A 
ATOM     12  C   UNL     1      15.880  14.651  45.329  0.00  0.00    +0.000 A 
ENDROOT
BRANCH   9  13
ATOM     13  O   UNL     1      14.750  10.686  44.615  0.00  0.00    +0.000 OA
ATOM     14  H   UNL     1      14.216   9.902  44.845  0.00  0.00    +0.000 HD
ENDBRANCH   9  13
TORSDOF 1
ENDMDL
MODEL 4
REMARK VINA RESULT:    -5.213      2.613      3.485
REMARK INTER + INTRA:          -5.366
REMARK INTER:                  -5.366
REMARK INTRA:                   0.000
REMARK UNBOUND:                 0.000
REMARK  Name = corr_lig_vina.pdb
REMARK  1 active torsions:
REMARK  status: ('A' for Active; 'I' for Inactive)
REMARK    1  A    between atoms: C_9  and  O_12
REMARK                            x       y       z     vdW  Elec       q    Type
REMARK                         _______ _______ _______ _____ _____    ______ ____
ROOT
ATOM      1  O   UNL     1      13.332  11.831  44.731  0.00  0.00    +0.000 OA
ATOM      2  C   UNL     1      13.167  13.027  44.579  0.00  0.00    +0.000 C 
ATOM      3  C   UNL     1      11.766  13.557  44.163  0.00  0.00    +0.000 C 
ATOM      4  C   UNL     1      14.265  14.019  44.778  0.00  0.00    +0.000 A 
ATOM      5  O   UNL     1      10.832  12.798  43.988  0.00  0.00    +0.000 OA
ATOM      6  C   UNL     1      11.688  15.012  44.010  0.00  0.00    +0.000 C 
ATOM      7  C   UNL     1      14.035  15.391  44.592  0.00  0.00    +0.000 A 
ATOM      8  C   UNL     1      15.534  13.566  45.155  0.00  0.00    +0.000 A 
ATOM      9  C   UNL     1      12.728  15.899  44.201  0.00  0.00    +0.000 C 
ATOM     10  C   UNL     1      15.099  16.283  44.792  0.00  0.00    +0.000 A 
ATOM     11  C   UNL     1      16.578  14.464  45.350  0.00  0.00    +0.000 A 
ATOM     12  C   UNL     1      16.360  15.824  45.167  0.00  0.00    +0.000 A 
ENDROOT
BRANCH   9  13
ATOM     13  O   UNL     1      12.583  17.229  44.041  0.00  0.00    +0.000 OA
ATOM     14  H   UNL     1      12.735  17.440  43.101  0.00  0.00    +0.000 HD
ENDBRANCH   9  13
TORSDOF 1
ENDMDL
MODEL 5
REMARK VINA RESULT:    -5.116      2.558      3.041
REMARK INTER + INTRA:          -5.265
REMARK INTER:                  -5.265
REMARK INTRA:                   0.000
REMARK UNBOUND:                 0.000
REMARK  Name = corr_lig_vina.pdb
REMARK  1 active torsions:
REMARK  status: ('A' for Active; 'I' for Inactive)
REMARK    1  A    between atoms: C_9  and  O_12
REMARK                            x       y       z     vdW  Elec       q    Type
REMARK                         _______ _______ _______ _____ _____    ______ ____
ROOT
ATOM      1  O   UNL     1      12.704  15.686  42.701  0.00  0.00    +0.000 OA
ATOM      2  C   UNL     1      13.173  14.650  43.134  0.00  0.00    +0.000 C 
ATOM      3  C   UNL     1      12.513  13.295  42.752  0.00  0.00    +0.000 C 
ATOM      4  C   UNL     1      14.369  14.624  44.027  0.00  0.00    +0.000 A 
ATOM      5  O   UNL     1      11.537  13.252  42.027  0.00  0.00    +0.000 OA
ATOM      6  C   UNL     1      13.163  12.117  43.332  0.00  0.00    +0.000 C 
ATOM      7  C   UNL     1      14.880  13.408  44.506  0.00  0.00    +0.000 A 
ATOM      8  C   UNL     1      14.982  15.831  44.383  0.00  0.00    +0.000 A 
ATOM      9  C   UNL     1      14.270  12.133  44.157  0.00  0.00    +0.000 C 
ATOM     10  C   UNL     1      16.006  13.436  45.342  0.00  0.00    +0.000 A 
ATOM     11  C   UNL     1      16.098  15.841  45.212  0.00  0.00    +0.000 A 
ATOM     12  C   UNL     1      16.610  14.642  45.693  0.00  0.00    +0.000 A 
ENDROOT
BRANCH   9  13
ATOM     13  O   UNL     1      14.816  11.007  44.656  0.00  0.00    +0.000 OA
ATOM     14  H   UNL     1      14.982  11.145  45.607  0.00  0.00    +0.000 HD
ENDBRANCH   9  13
TORSDOF 1
ENDMDL
MODEL 6
REMARK VINA RESULT:    -5.099      2.769      4.437
REMARK INTER + INTRA:          -5.248
REMARK INTER:                  -5.248
REMARK INTRA:                   0.000
REMARK UNBOUND:                 0.000
REMARK  Name = corr_lig_vina.pdb
REMARK  1 active torsions:
REMARK  status: ('A' for Active; 'I' for Inactive)
REMARK    1  A    between atoms: C_9  and  O_12
REMARK                            x       y       z     vdW  Elec       q    Type
REMARK                         _______ _______ _______ _____ _____    ______ ____
ROOT
ATOM      1  O   UNL     1      16.320  14.233  44.462  0.00  0.00    +0.000 OA
ATOM      2  C   UNL     1      15.116  14.058  44.467  0.00  0.00    +0.000 C 
ATOM      3  C   UNL     1      14.553  12.615  44.329  0.00  0.00    +0.000 C 
ATOM      4  C   UNL     1      14.144  15.184  44.602  0.00  0.00    +0.000 A 
ATOM      5  O   UNL     1      15.294  11.658  44.218  0.00  0.00    +0.000 OA
ATOM      6  C   UNL     1      13.090  12.530  44.348  0.00  0.00    +0.000 C 
ATOM      7  C   UNL     1      12.762  14.942  44.604  0.00  0.00    +0.000 A 
ATOM      8  C   UNL     1      14.627  16.491  44.730  0.00  0.00    +0.000 A 
ATOM      9  C   UNL     1      12.223  13.596  44.473  0.00  0.00    +0.000 C 
ATOM     10  C   UNL     1      11.890  16.033  44.733  0.00  0.00    +0.000 A 
ATOM     11  C   UNL     1      13.749  17.561  44.859  0.00  0.00    +0.000 A 
ATOM     12  C   UNL     1      12.378  17.332  44.860  0.00  0.00    +0.000 A 
ENDROOT
BRANCH   9  13
ATOM     13  O   UNL     1      10.884  13.442  44.483  0.00  0.00    +0.000 OA
ATOM     14  H   UNL     1      10.506  14.031  43.803  0.00  0.00    +0.000 HD
ENDBRANCH   9  13
TORSDOF 1
ENDMDL
MODEL 7
REMARK VINA RESULT:    -5.094      2.452      4.764
REMARK INTER + INTRA:          -5.243
REMARK INTER:                  -5.243
REMARK INTRA:                   0.000
REMARK UNBOUND:                 0.000
REMARK  Name = corr_lig_vina.pdb
REMARK  1 active torsions:
REMARK  status: ('A' for Active; 'I' for Inactive)
REMARK    1  A    between atoms: C_9  and  O_12
REMARK                            x       y       z     vdW  Elec       q    Type
REMARK                         _______ _______ _______ _____ _____    ______ ____
ROOT
ATOM      1  O   UNL     1      15.456  16.617  44.590  0.00  0.00    +0.000 OA
ATOM      2  C   UNL     1      14.996  15.491  44.635  0.00  0.00    +0.000 C 
ATOM      3  C   UNL     1      15.956  14.283  44.831  0.00  0.00    +0.000 C 
ATOM      4  C   UNL     1      13.534  15.216  44.508  0.00  0.00    +0.000 A 
ATOM      5  O   UNL     1      17.156  14.443  44.942  0.00  0.00    +0.000 OA
ATOM      6  C   UNL     1      15.290  12.978  44.868  0.00  0.00    +0.000 C 
ATOM      7  C   UNL     1      13.044  13.902  44.564  0.00  0.00    +0.000 A 
ATOM      8  C   UNL     1      12.651  16.287  44.333  0.00  0.00    +0.000 A 
ATOM      9  C   UNL     1      13.933  12.763  44.745  0.00  0.00    +0.000 C 
ATOM     10  C   UNL     1      11.662  13.696  44.440  0.00  0.00    +0.000 A 
ATOM     11  C   UNL     1      11.284  16.065  44.213  0.00  0.00    +0.000 A 
ATOM     12  C   UNL     1      10.789  14.768  44.266  0.00  0.00    +0.000 A 
ENDROOT
BRANCH   9  13
ATOM     13  O   UNL     1      13.388  11.531  44.789  0.00  0.00    +0.000 OA
ATOM     14  H   UNL     1      14.106  10.878  44.688  0.00  0.00    +0.000 HD
ENDBRANCH   9  13
TORSDOF 1
ENDMDL
MODEL 8
REMARK VINA RESULT:    -5.071      2.051      3.914
REMARK INTER + INTRA:          -5.220
REMARK INTER:                  -5.220
REMARK INTRA:                   0.000
REMARK UNBOUND:                 0.000
REMARK  Name = corr_lig_vina.pdb
REMARK  1 active torsions:
REMARK  status: ('A' for Active; 'I' for Inactive)
REMARK    1  A    between atoms: C_9  and  O_12
REMARK                            x       y       z     vdW  Elec       q    Type
REMARK                         _______ _______ _______ _____ _____    ______ ____
ROOT
ATOM      1  O   UNL     1      16.106  15.806  41.502  0.00  0.00    +0.000 OA
ATOM      2  C   UNL     1      16.228  15.299  42.602  0.00  0.00    +0.000 C 
ATOM      3  C   UNL     1      17.623  15.294  43.289  0.00  0.00    +0.000 C 
ATOM      4  C   UNL     1      15.083  14.674  43.328  0.00  0.00    +0.000 A 
ATOM      5  O   UNL     1      18.594  15.789  42.748  0.00  0.00    +0.000 OA
ATOM      6  C   UNL     1      17.648  14.656  44.608  0.00  0.00    +0.000 C 
ATOM      7  C   UNL     1      15.265  14.098  44.595  0.00  0.00    +0.000 A 
ATOM      8  C   UNL     1      13.817  14.668  42.731  0.00  0.00    +0.000 A 
ATOM      9  C   UNL     1      16.566  14.086  45.247  0.00  0.00    +0.000 C 
ATOM     10  C   UNL     1      14.158  13.524  45.236  0.00  0.00    +0.000 A 
ATOM     11  C   UNL     1      12.730  14.095  43.381  0.00  0.00    +0.000 A 
ATOM     12  C   UNL     1      12.901  13.522  44.635  0.00  0.00    +0.000 A 
ENDROOT
BRANCH   9  13
ATOM     13  O   UNL     1      16.664  13.514  46.464  0.00  0.00    +0.000 OA
ATOM     14  H   UNL     1      16.790  12.555  46.340  0.00  0.00    +0.000 HD
ENDBRANCH   9  13
TORSDOF 1
ENDMDL
MODEL 9
REMARK VINA RESULT:    -5.027      2.688      3.679
REMARK INTER + INTRA:          -5.174
REMARK INTER:                  -5.174
REMARK INTRA:                   0.000
REMARK UNBOUND:                 0.000
REMARK  Name = corr_lig_vina.pdb
REMARK  1 active torsions:
REMARK  status: ('A' for Active; 'I' for Inactive)
REMARK    1  A    between atoms: C_9  and  O_12
REMARK                            x       y       z     vdW  Elec       q    Type
REMARK                         _______ _______ _______ _____ _____    ______ ____
ROOT
ATOM      1  O   UNL     1      12.321  17.051  44.022  0.00  0.00    +0.000 OA
ATOM      2  C   UNL     1      12.570  15.875  44.215  0.00  0.00    +0.000 C 
ATOM      3  C   UNL     1      11.450  14.815  44.015  0.00  0.00    +0.000 C 
ATOM      4  C   UNL     1      13.920  15.401  44.641  0.00  0.00    +0.000 A 
ATOM      5  O   UNL     1      10.330  15.140  43.667  0.00  0.00    +0.000 OA
ATOM      6  C   UNL     1      11.866  13.435  44.277  0.00  0.00    +0.000 C 
ATOM      7  C   UNL     1      14.167  14.036  44.854  0.00  0.00    +0.000 A 
ATOM      8  C   UNL     1      14.945  16.336  44.826  0.00  0.00    +0.000 A 
ATOM      9  C   UNL     1      13.126  13.035  44.672  0.00  0.00    +0.000 C 
ATOM     10  C   UNL     1      15.452  13.641  45.254  0.00  0.00    +0.000 A 
ATOM     11  C   UNL     1      16.214  15.927  45.221  0.00  0.00    +0.000 A 
ATOM     12  C   UNL     1      16.467  14.578  45.436  0.00  0.00    +0.000 A 
ENDROOT
BRANCH   9  13
ATOM     13  O   UNL     1      13.438  11.743  44.896  0.00  0.00    +0.000 OA
ATOM     14  H   UNL     1      14.409  11.670  44.951  0.00  0.00    +0.000 HD
ENDBRANCH   9  13
TORSDOF 1
ENDMDL
MODEL 10
REMARK VINA RESULT:    -4.976      2.417      4.871
REMARK INTER + INTRA:          -5.121
REMARK INTER:                  -5.121
REMARK INTRA:                   0.000
REMARK UNBOUND:                 0.000
REMARK  Name = corr_lig_vina.pdb
REMARK  1 active torsions:
REMARK  status: ('A' for Active; 'I' for Inactive)
REMARK    1  A    between atoms: C_9  and  O_12
REMARK                            x       y       z     vdW  Elec       q    Type
REMARK                         _______ _______ _______ _____ _____    ______ ____
ROOT
ATOM      1  O   UNL     1      15.143  16.111  44.754  0.00  0.00    +0.000 OA
ATOM      2  C   UNL     1      14.658  15.003  44.613  0.00  0.00    +0.000 C 
ATOM      3  C   UNL     1      15.583  13.754  44.662  0.00  0.00    +0.000 C 
ATOM      4  C   UNL     1      13.197  14.791  44.392  0.00  0.00    +0.000 A 
ATOM      5  O   UNL     1      16.781  13.863  44.842  0.00  0.00    +0.000 OA
ATOM      6  C   UNL     1      14.888  12.477  44.479  0.00  0.00    +0.000 C 
ATOM      7  C   UNL     1      12.677  13.497  44.232  0.00  0.00    +0.000 A 
ATOM      8  C   UNL     1      12.345  15.900  44.345  0.00  0.00    +0.000 A 
ATOM      9  C   UNL     1      13.533  12.320  44.275  0.00  0.00    +0.000 C 
ATOM     10  C   UNL     1      11.297  13.350  44.027  0.00  0.00    +0.000 A 
ATOM     11  C   UNL     1      10.980  15.736  44.142  0.00  0.00    +0.000 A 
ATOM     12  C   UNL     1      10.455  14.459  43.982  0.00  0.00    +0.000 A 
ENDROOT
BRANCH   9  13
ATOM     13  O   UNL     1      12.960  11.110  44.113  0.00  0.00    +0.000 OA
ATOM     14  H   UNL     1      12.046  11.246  43.802  0.00  0.00    +0.000 HD
ENDBRANCH   9  13
TORSDOF 1
ENDMDL
MODEL 11
REMARK VINA RESULT:    -4.925      2.611      3.529
REMARK INTER + INTRA:          -5.069
REMARK INTER:                  -5.069
REMARK INTRA:                   0.000
REMARK UNBOUND:                 0.000
REMARK  Name = corr_lig_vina.pdb
REMARK  1 active torsions:
REMARK  status: ('A' for Active; 'I' for Inactive)
REMARK    1  A    between atoms: C_9  and  O_12
REMARK                            x       y       z     vdW  Elec       q    Type
REMARK                         _______ _______ _______ _____ _____    ______ ____
ROOT
ATOM      1  O   UNL     1      12.702  11.994  44.483  0.00  0.00    +0.000 OA
ATOM      2  C   UNL     1      12.669  13.211  44.509  0.00  0.00    +0.000 C 
ATOM      3  C   UNL     1      11.296  13.938  44.447  0.00  0.00    +0.000 C 
ATOM      4  C   UNL     1      13.904  14.044  44.601  0.00  0.00    +0.000 A 
ATOM      5  O   UNL     1      10.254  13.314  44.373  0.00  0.00    +0.000 OA
ATOM      6  C   UNL     1      11.381  15.401  44.485  0.00  0.00    +0.000 C 
ATOM      7  C   UNL     1      13.824  15.445  44.628  0.00  0.00    +0.000 A 
ATOM      8  C   UNL     1      15.151  13.412  44.660  0.00  0.00    +0.000 A 
ATOM      9  C   UNL     1      12.545  16.137  44.568  0.00  0.00    +0.000 C 
ATOM     10  C   UNL     1      15.014  16.183  44.715  0.00  0.00    +0.000 A 
ATOM     11  C   UNL     1      16.321  14.159  44.747  0.00  0.00    +0.000 A 
ATOM     12  C   UNL     1      16.251  15.547  44.774  0.00  0.00    +0.000 A 
ENDROOT
BRANCH   9  13
ATOM     13  O   UNL     1      12.548  17.485  44.599  0.00  0.00    +0.000 OA
ATOM     14  H   UNL     1      11.765  17.778  45.101  0.00  0.00    +0.000 HD
ENDBRANCH   9  13
TORSDOF 1
ENDMDL
MODEL 12
REMARK VINA RESULT:    -4.838      3.499      5.414
REMARK INTER + INTRA:          -4.979
REMARK INTER:                  -4.979
REMARK INTRA:                   0.000
REMARK UNBOUND:                 0.000
REMARK  Name = corr_lig_vina.pdb
REMARK  1 active torsions:
REMARK  status: ('A' for Active; 'I' for Inactive)
REMARK    1  A    between atoms: C_9  and  O_12
REMARK                            x       y       z     vdW  Elec       q    Type
REMARK                         _______ _______ _______ _____ _____    ______ ____
ROOT
ATOM      1  O   UNL     1      14.323  13.512  45.464  0.00  0.00    +0.000 OA
ATOM      2  C   UNL     1      13.433  13.188  44.700  0.00  0.00    +0.000 C 
ATOM      3  C   UNL     1      13.400  11.738  44.138  0.00  0.00    +0.000 C 
ATOM      4  C   UNL     1      12.359  14.133  44.273  0.00  0.00    +0.000 A 
ATOM      5  O   UNL     1      14.247  10.922  44.451  0.00  0.00    +0.000 OA
ATOM      6  C   UNL     1      12.285  11.464  43.228  0.00  0.00    +0.000 C 
ATOM      7  C   UNL     1      11.350  13.720  43.389  0.00  0.00    +0.000 A 
ATOM      8  C   UNL     1      12.366  15.442  44.767  0.00  0.00    +0.000 A 
ATOM      9  C   UNL     1      11.310  12.367  42.855  0.00  0.00    +0.000 C 
ATOM     10  C   UNL     1      10.363  14.646  43.018  0.00  0.00    +0.000 A 
ATOM     11  C   UNL     1      11.379  16.347  44.390  0.00  0.00    +0.000 A 
ATOM     12  C   UNL     1      10.377  15.948  43.514  0.00  0.00    +0.000 A 
ENDROOT
BRANCH   9  13
ATOM     13  O   UNL     1      10.311  12.044  42.010  0.00  0.00    +0.000 OA
ATOM     14  H   UNL     1       9.610  12.717  42.098  0.00  0.00    +0.000 HD
ENDBRANCH   9  13
TORSDOF 1
ENDMDL
MODEL 13
REMARK VINA RESULT:    -4.838      2.707      3.697
REMARK INTER + INTRA:          -4.979
REMARK INTER:                  -4.979
REMARK INTRA:                   0.000
REMARK UNBOUND:                 0.000
REMARK  Name = corr_lig_vina.pdb
REMARK  1 active torsions:
REMARK  status: ('A' for Active; 'I' for Inactive)
REMARK    1  A    between atoms: C_9  and  O_12
REMARK                            x       y       z     vdW  Elec       q    Type
REMARK                         _______ _______ _______ _____ _____    ______ ____
ROOT
ATOM      1  O   UNL     1      12.135  11.301  43.534  0.00  0.00    +0.000 OA
ATOM      2  C   UNL     1      12.117  12.486  43.810  0.00  0.00    +0.000 C 
ATOM      3  C   UNL     1      10.768  13.258  43.771  0.00  0.00    +0.000 C 
ATOM      4  C   UNL     1      13.350  13.240  44.187  0.00  0.00    +0.000 A 
ATOM      5  O   UNL     1       9.730  12.699  43.473  0.00  0.00    +0.000 OA
ATOM      6  C   UNL     1      10.871  14.678  44.120  0.00  0.00    +0.000 C 
ATOM      7  C   UNL     1      13.288  14.607  44.497  0.00  0.00    +0.000 A 
ATOM      8  C   UNL     1      14.575  12.565  44.230  0.00  0.00    +0.000 A 
ATOM      9  C   UNL     1      12.032  15.341  44.463  0.00  0.00    +0.000 C 
ATOM     10  C   UNL     1      14.474  15.270  44.845  0.00  0.00    +0.000 A 
ATOM     11  C   UNL     1      15.742  13.238  44.578  0.00  0.00    +0.000 A 
ATOM     12  C   UNL     1      15.691  14.592  44.886  0.00  0.00    +0.000 A 
ENDROOT
BRANCH   9  13
ATOM     13  O   UNL     1      12.051  16.652  44.773  0.00  0.00    +0.000 OA
ATOM     14  H   UNL     1      12.281  16.738  45.717  0.00  0.00    +0.000 HD
ENDBRANCH   9  13
TORSDOF 1
ENDMDL
MODEL 14
REMARK VINA RESULT:    -4.749      2.892      4.605
REMARK INTER + INTRA:          -4.888
REMARK INTER:                  -4.888
REMARK INTRA:                   0.000
REMARK UNBOUND:                 0.000
REMARK  Name = corr_lig_vina.pdb
REMARK  1 active torsions:
REMARK  status: ('A' for Active; 'I' for Inactive)
REMARK    1  A    between atoms: C_9  and  O_12
REMARK                            x       y       z     vdW  Elec       q    Type
REMARK                         _______ _______ _______ _____ _____    ______ ____
ROOT
ATOM      1  O   UNL     1      11.776  11.446  43.406  0.00  0.00    +0.000 OA
ATOM      2  C   UNL     1      12.408  12.417  43.778  0.00  0.00    +0.000 C 
ATOM      3  C   UNL     1      13.890  12.243  44.214  0.00  0.00    +0.000 C 
ATOM      4  C   UNL     1      11.813  13.785  43.836  0.00  0.00    +0.000 A 
ATOM      5  O   UNL     1      14.431  11.154  44.188  0.00  0.00    +0.000 OA
ATOM      6  C   UNL     1      14.546  13.481  44.644  0.00  0.00    +0.000 C 
ATOM      7  C   UNL     1      12.573  14.881  44.273  0.00  0.00    +0.000 A 
ATOM      8  C   UNL     1      10.481  13.967  43.447  0.00  0.00    +0.000 A 
ATOM      9  C   UNL     1      13.961  14.730  44.685  0.00  0.00    +0.000 C 
ATOM     10  C   UNL     1      11.969  16.146  44.308  0.00  0.00    +0.000 A 
ATOM     11  C   UNL     1       9.897  15.229  43.487  0.00  0.00    +0.000 A 
ATOM     12  C   UNL     1      10.642  16.319  43.920  0.00  0.00    +0.000 A 
ENDROOT
BRANCH   9  13
ATOM     13  O   UNL     1      14.628  15.828  45.093  0.00  0.00    +0.000 OA
ATOM     14  H   UNL     1      15.324  15.547  45.716  0.00  0.00    +0.000 HD
ENDBRANCH   9  13
TORSDOF 1
ENDMDL
MODEL 15
REMARK VINA RESULT:    -4.692      2.583      3.831
REMARK INTER + INTRA:          -4.830
REMARK INTER:                  -4.830
REMARK INTRA:                   0.000
REMARK UNBOUND:                 0.000
REMARK  Name = corr_lig_vina.pdb
REMARK  1 active torsions:
REMARK  status: ('A' for Active; 'I' for Inactive)
REMARK    1  A    between atoms: C_9  and  O_12
REMARK                            x       y       z     vdW  Elec       q    Type
REMARK                         _______ _______ _______ _____ _____    ______ ____
ROOT
ATOM      1  O   UNL     1      15.797  12.697  44.718  0.00  0.00    +0.000 OA
ATOM      2  C   UNL     1      14.756  13.326  44.663  0.00  0.00    +0.000 C 
ATOM      3  C   UNL     1      13.415  12.564  44.465  0.00  0.00    +0.000 C 
ATOM      4  C   UNL     1      14.711  14.814  44.779  0.00  0.00    +0.000 A 
ATOM      5  O   UNL     1      13.387  11.352  44.366  0.00  0.00    +0.000 OA
ATOM      6  C   UNL     1      12.230  13.425  44.414  0.00  0.00    +0.000 C 
ATOM      7  C   UNL     1      13.490  15.502  44.710  0.00  0.00    +0.000 A 
ATOM      8  C   UNL     1      15.905  15.521  44.960  0.00  0.00    +0.000 A 
ATOM      9  C   UNL     1      12.228  14.800  44.524  0.00  0.00    +0.000 C 
ATOM     10  C   UNL     1      13.501  16.900  44.825  0.00  0.00    +0.000 A 
ATOM     11  C   UNL     1      15.898  16.907  45.073  0.00  0.00    +0.000 A 
ATOM     12  C   UNL     1      14.693  17.597  45.005  0.00  0.00    +0.000 A 
ENDROOT
BRANCH   9  13
ATOM     13  O   UNL     1      11.096  15.529  44.467  0.00  0.00    +0.000 OA
ATOM     14  H   UNL     1      11.300  16.432  44.775  0.00  0.00    +0.000 HD
ENDBRANCH   9  13
TORSDOF 1
ENDMDL
MODEL 16
REMARK VINA RESULT:    -4.642      2.425      4.479
REMARK INTER + INTRA:          -4.777
REMARK INTER:                  -4.777
REMARK INTRA:                   0.000
REMARK UNBOUND:                 0.000
REMARK  Name = corr_lig_vina.pdb
REMARK  1 active torsions:
REMARK  status: ('A' for Active; 'I' for Inactive)
REMARK    1  A    between atoms: C_9  and  O_12
REMARK                            x       y       z     vdW  Elec       q    Type
REMARK                         _______ _______ _______ _____ _____    ______ ____
ROOT
ATOM      1  O   UNL     1      14.189  16.747  44.516  0.00  0.00    +0.000 OA
ATOM      2  C   UNL     1      14.380  15.545  44.497  0.00  0.00    +0.000 C 
ATOM      3  C   UNL     1      15.754  14.983  44.961  0.00  0.00    +0.000 C 
ATOM      4  C   UNL     1      13.339  14.575  44.043  0.00  0.00    +0.000 A 
ATOM      5  O   UNL     1      16.640  15.723  45.344  0.00  0.00    +0.000 OA
ATOM      6  C   UNL     1      15.867  13.524  44.894  0.00  0.00    +0.000 C 
ATOM      7  C   UNL     1      13.599  13.196  44.036  0.00  0.00    +0.000 A 
ATOM      8  C   UNL     1      12.094  15.057  43.623  0.00  0.00    +0.000 A 
ATOM      9  C   UNL     1      14.881  12.659  44.466  0.00  0.00    +0.000 C 
ATOM     10  C   UNL     1      12.588  12.326  43.600  0.00  0.00    +0.000 A 
ATOM     11  C   UNL     1      11.103  14.180  43.196  0.00  0.00    +0.000 A 
ATOM     12  C   UNL     1      11.351  12.813  43.184  0.00  0.00    +0.000 A 
ENDROOT
BRANCH   9  13
ATOM     13  O   UNL     1      15.056  11.323  44.431  0.00  0.00    +0.000 OA
ATOM     14  H   UNL     1      15.897  11.115  44.880  0.00  0.00    +0.000 HD
ENDBRANCH   9  13
TORSDOF 1
ENDMDL
MODEL 17
REMARK VINA RESULT:    -4.529      3.101      4.480
REMARK INTER + INTRA:          -4.661
REMARK INTER:                  -4.661
REMARK INTRA:                   0.000
REMARK UNBOUND:                 0.000
REMARK  Name = corr_lig_vina.pdb
REMARK  1 active torsions:
REMARK  status: ('A' for Active; 'I' for Inactive)
REMARK    1  A    between atoms: C_9  and  O_12
REMARK                            x       y       z     vdW  Elec       q    Type
REMARK                         _______ _______ _______ _____ _____    ______ ____
ROOT
ATOM      1  O   UNL     1      14.737  17.565  44.601  0.00  0.00    +0.000 OA
ATOM      2  C   UNL     1      13.908  16.674  44.603  0.00  0.00    +0.000 C 
ATOM      3  C   UNL     1      12.396  17.039  44.587  0.00  0.00    +0.000 C 
ATOM      4  C   UNL     1      14.284  15.230  44.619  0.00  0.00    +0.000 A 
ATOM      5  O   UNL     1      12.028  18.198  44.571  0.00  0.00    +0.000 OA
ATOM      6  C   UNL     1      11.493  15.885  44.591  0.00  0.00    +0.000 C 
ATOM      7  C   UNL     1      13.297  14.232  44.622  0.00  0.00    +0.000 A 
ATOM      8  C   UNL     1      15.638  14.877  44.632  0.00  0.00    +0.000 A 
ATOM      9  C   UNL     1      11.879  14.561  44.609  0.00  0.00    +0.000 C 
ATOM     10  C   UNL     1      13.702  12.889  44.638  0.00  0.00    +0.000 A 
ATOM     11  C   UNL     1      16.021  13.540  44.646  0.00  0.00    +0.000 A 
ATOM     12  C   UNL     1      15.052  12.545  44.650  0.00  0.00    +0.000 A 
ENDROOT
BRANCH   9  13
ATOM     13  O   UNL     1      10.990  13.548  44.612  0.00  0.00    +0.000 OA
ATOM     14  H   UNL     1      11.226  12.935  43.891  0.00  0.00    +0.000 HD
ENDBRANCH   9  13
TORSDOF 1
ENDMDL
MODEL 18
REMARK VINA RESULT:    -4.452      2.802      4.537
REMARK INTER + INTRA:          -4.582
REMARK INTER:                  -4.582
REMARK INTRA:                   0.000
REMARK UNBOUND:                 0.000
REMARK  Name = corr_lig_vina.pdb
REMARK  1 active torsions:
REMARK  status: ('A' for Active; 'I' for Inactive)
REMARK    1  A    between atoms: C_9  and  O_12
REMARK                            x       y       z     vdW  Elec       q    Type
REMARK                         _______ _______ _______ _____ _____    ______ ____
ROOT
ATOM      1  O   UNL     1      15.502  12.752  44.644  0.00  0.00    +0.000 OA
ATOM      2  C   UNL     1      15.390  13.956  44.787  0.00  0.00    +0.000 C 
ATOM      3  C   UNL     1      16.651  14.805  45.115  0.00  0.00    +0.000 C 
ATOM      4  C   UNL     1      14.079  14.659  44.661  0.00  0.00    +0.000 A 
ATOM      5  O   UNL     1      17.746  14.289  45.229  0.00  0.00    +0.000 OA
ATOM      6  C   UNL     1      16.393  16.240  45.267  0.00  0.00    +0.000 C 
ATOM      7  C   UNL     1      13.992  16.049  44.835  0.00  0.00    +0.000 A 
ATOM      8  C   UNL     1      12.932  13.916  44.365  0.00  0.00    +0.000 A 
ATOM      9  C   UNL     1      15.164  16.854  45.144  0.00  0.00    +0.000 C 
ATOM     10  C   UNL     1      12.737  16.663  44.707  0.00  0.00    +0.000 A 
ATOM     11  C   UNL     1      11.696  14.541  44.239  0.00  0.00    +0.000 A 
ATOM     12  C   UNL     1      11.599  15.916  44.411  0.00  0.00    +0.000 A 
ENDROOT
BRANCH   9  13
ATOM     13  O   UNL     1      15.001  18.184  45.298  0.00  0.00    +0.000 OA
ATOM     14  H   UNL     1      14.235  18.330  45.883  0.00  0.00    +0.000 HD
ENDBRANCH   9  13
TORSDOF 1
ENDMDL
MODEL 19
REMARK VINA RESULT:    -4.163      3.364      4.876
REMARK INTER + INTRA:          -4.285
REMARK INTER:                  -4.285
REMARK INTRA:                   0.000
REMARK UNBOUND:                 0.000
REMARK  Name = corr_lig_vina.pdb
REMARK  1 active torsions:
REMARK  status: ('A' for Active; 'I' for Inactive)
REMARK    1  A    between atoms: C_9  and  O_12
REMARK                            x       y       z     vdW  Elec       q    Type
REMARK                         _______ _______ _______ _____ _____    ______ ____
ROOT
ATOM      1  O   UNL     1       9.649  16.125  43.633  0.00  0.00    +0.000 OA
ATOM      2  C   UNL     1      10.293  15.092  43.658  0.00  0.00    +0.000 C 
ATOM      3  C   UNL     1       9.600  13.752  43.282  0.00  0.00    +0.000 C 
ATOM      4  C   UNL     1      11.736  15.058  44.039  0.00  0.00    +0.000 A 
ATOM      5  O   UNL     1       8.428  13.716  42.962  0.00  0.00    +0.000 OA
ATOM      6  C   UNL     1      10.474  12.577  43.350  0.00  0.00    +0.000 C 
ATOM      7  C   UNL     1      12.444  13.846  44.057  0.00  0.00    +0.000 A 
ATOM      8  C   UNL     1      12.381  16.252  44.379  0.00  0.00    +0.000 A 
ATOM      9  C   UNL     1      11.806  12.585  43.709  0.00  0.00    +0.000 C 
ATOM     10  C   UNL     1      13.798  13.866  44.422  0.00  0.00    +0.000 A 
ATOM     11  C   UNL     1      13.725  16.254  44.738  0.00  0.00    +0.000 A 
ATOM     12  C   UNL     1      14.434  15.059  44.759  0.00  0.00    +0.000 A 
ENDROOT
BRANCH   9  13
ATOM     13  O   UNL     1      12.551  11.462  43.749  0.00  0.00    +0.000 OA
ATOM     14  H   UNL     1      11.980  10.710  43.505  0.00  0.00    +0.000 HD
ENDBRANCH   9  13
TORSDOF 1
ENDMDL
