MODEL 1
REMARK VINA RESULT:    -4.801      0.000      0.000
REMARK INTER + INTRA:          -5.411
REMARK INTER:                  -5.223
REMARK INTRA:                  -0.188
REMARK UNBOUND:                -0.188
REMARK  Name = corr_lig_vina.pdb
REMARK  5 active torsions:
REMARK  status: ('A' for Active; 'I' for Inactive)
REMARK    1  A    between atoms: O_1  and  C_2
REMARK    2  A    between atoms: C_3  and  C_6
REMARK    3  A    between atoms: C_6  and  C_9
REMARK    4  A    between atoms: C_6  and  C_10
REMARK    5  A    between atoms: C_7  and  C_11
REMARK                            x       y       z     vdW  Elec       q    Type
REMARK                         _______ _______ _______ _____ _____    ______ ____
ROOT
ATOM      1  C   UNL     1      14.128  12.260  44.055  0.00  0.00    +0.000 A 
ATOM      2  C   UNL     1      14.714  13.451  44.519  0.00  0.00    +0.000 A 
ATOM      3  C   UNL     1      12.757  12.196  43.804  0.00  0.00    +0.000 A 
ATOM      4  C   UNL     1      13.885  14.561  44.726  0.00  0.00    +0.000 A 
ATOM      5  C   UNL     1      11.943  13.306  44.021  0.00  0.00    +0.000 A 
ATOM      6  C   UNL     1      12.514  14.487  44.490  0.00  0.00    +0.000 A 
ATOM      7  C   UNL     1      10.451  13.243  43.746  0.00  0.00    +0.000 C 
ENDROOT
BRANCH   2   8
ATOM      8  C   UNL     1      16.230  13.555  44.736  0.00  0.00    +0.000 C 
ATOM      9  C   UNL     1      16.925  14.093  43.467  0.00  0.00    +0.000 C 
ATOM     10  C   UNL     1      16.637  14.406  45.960  0.00  0.00    +0.000 C 
ENDBRANCH   2   8
BRANCH   1  11
ATOM     11  O   UNL     1      14.874  11.142  43.826  0.00  0.00    +0.000 OA
ATOM     12  H   UNL     1      14.702  10.483  44.523  0.00  0.00    +0.000 HD
ENDBRANCH   1  11
TORSDOF 2
ENDMDL
MODEL 2
REMARK VINA RESULT:    -4.658      1.203      1.387
REMARK INTER + INTRA:          -5.255
REMARK INTER:                  -5.071
REMARK INTRA:                  -0.184
REMARK UNBOUND:                -0.188
REMARK  Name = corr_lig_vina.pdb
REMARK  5 active torsions:
REMARK  status: ('A' for Active; 'I' for Inactive)
REMARK    1  A    between atoms: O_1  and  C_2
REMARK    2  A    between atoms: C_3  and  C_6
REMARK    3  A    between atoms: C_6  and  C_9
REMARK    4  A    between atoms: C_6  and  C_10
REMARK    5  A    between atoms: C_7  and  C_11
REMARK                            x       y       z     vdW  Elec       q    Type
REMARK                         _______ _______ _______ _____ _____    ______ ____
ROOT
ATOM      1  C   UNL     1      13.205  13.174  44.679  0.00  0.00    +0.000 A 
ATOM      2  C   UNL     1      14.277  14.085  44.728  0.00  0.00    +0.000 A 
ATOM      3  C   UNL     1      11.904  13.624  44.451  0.00  0.00    +0.000 A 
ATOM      4  C   UNL     1      14.000  15.446  44.548  0.00  0.00    +0.000 A 
ATOM      5  C   UNL     1      11.642  14.982  44.280  0.00  0.00    +0.000 A 
ATOM      6  C   UNL     1      12.697  15.891  44.337  0.00  0.00    +0.000 A 
ATOM      7  C   UNL     1      10.229  15.476  44.029  0.00  0.00    +0.000 C 
ENDROOT
BRANCH   2   8
ATOM      8  C   UNL     1      15.721  13.597  44.911  0.00  0.00    +0.000 C 
ATOM      9  C   UNL     1      16.520  13.759  43.601  0.00  0.00    +0.000 C 
ATOM     10  C   UNL     1      16.475  14.278  46.076  0.00  0.00    +0.000 C 
ENDBRANCH   2   8
BRANCH   1  11
ATOM     11  O   UNL     1      13.401  11.835  44.841  0.00  0.00    +0.000 OA
ATOM     12  H   UNL     1      14.195  11.682  45.383  0.00  0.00    +0.000 HD
ENDBRANCH   1  11
TORSDOF 2
ENDMDL
MODEL 3
REMARK VINA RESULT:    -4.614      0.980      1.045
REMARK INTER + INTRA:          -5.207
REMARK INTER:                  -5.019
REMARK INTRA:                  -0.188
REMARK UNBOUND:                -0.188
REMARK  Name = corr_lig_vina.pdb
REMARK  5 active torsions:
REMARK  status: ('A' for Active; 'I' for Inactive)
REMARK    1  A    between atoms: O_1  and  C_2
REMARK    2  A    between atoms: C_3  and  C_6
REMARK    3  A    between atoms: C_6  and  C_9
REMARK    4  A    between atoms: C_6  and  C_10
REMARK    5  A    between atoms: C_7  and  C_11
REMARK                            x       y       z     vdW  Elec       q    Type
REMARK                         _______ _______ _______ _____ _____    ______ ____
ROOT
ATOM      1  C   UNL     1      14.562  12.929  44.598  0.00  0.00    +0.000 A 
ATOM      2  C   UNL     1      15.265  14.147  44.609  0.00  0.00    +0.000 A 
ATOM      3  C   UNL     1      13.167  12.917  44.594  0.00  0.00    +0.000 A 
ATOM      4  C   UNL     1      14.528  15.339  44.622  0.00  0.00    +0.000 A 
ATOM      5  C   UNL     1      12.447  14.110  44.613  0.00  0.00    +0.000 A 
ATOM      6  C   UNL     1      13.136  15.321  44.634  0.00  0.00    +0.000 A 
ATOM      7  C   UNL     1      10.928  14.102  44.605  0.00  0.00    +0.000 C 
ENDROOT
BRANCH   2   8
ATOM      8  C   UNL     1      16.799  14.176  44.547  0.00  0.00    +0.000 C 
ATOM      9  C   UNL     1      17.282  14.257  43.084  0.00  0.00    +0.000 C 
ATOM     10  C   UNL     1      17.445  15.308  45.379  0.00  0.00    +0.000 C 
ENDBRANCH   2   8
BRANCH   1  11
ATOM     11  O   UNL     1      15.213  11.732  44.581  0.00  0.00    +0.000 OA
ATOM     12  H   UNL     1      15.131  11.326  43.699  0.00  0.00    +0.000 HD
ENDBRANCH   1  11
TORSDOF 2
ENDMDL
MODEL 4
REMARK VINA RESULT:    -4.457      1.111      4.284
REMARK INTER + INTRA:          -5.036
REMARK INTER:                  -4.850
REMARK INTRA:                  -0.186
REMARK UNBOUND:                -0.188
REMARK  Name = corr_lig_vina.pdb
REMARK  5 active torsions:
REMARK  status: ('A' for Active; 'I' for Inactive)
REMARK    1  A    between atoms: O_1  and  C_2
REMARK    2  A    between atoms: C_3  and  C_6
REMARK    3  A    between atoms: C_6  and  C_9
REMARK    4  A    between atoms: C_6  and  C_10
REMARK    5  A    between atoms: C_7  and  C_11
REMARK                            x       y       z     vdW  Elec       q    Type
REMARK                         _______ _______ _______ _____ _____    ______ ____
ROOT
ATOM      1  C   UNL     1      13.022  12.408  44.076  0.00  0.00    +0.000 A 
ATOM      2  C   UNL     1      12.282  13.577  43.824  0.00  0.00    +0.000 A 
ATOM      3  C   UNL     1      14.306  12.486  44.617  0.00  0.00    +0.000 A 
ATOM      4  C   UNL     1      12.870  14.812  44.123  0.00  0.00    +0.000 A 
ATOM      5  C   UNL     1      14.881  13.722  44.904  0.00  0.00    +0.000 A 
ATOM      6  C   UNL     1      14.158  14.885  44.647  0.00  0.00    +0.000 A 
ATOM      7  C   UNL     1      16.277  13.813  45.495  0.00  0.00    +0.000 C 
ENDROOT
BRANCH   2   8
ATOM      8  C   UNL     1      10.844  13.503  43.292  0.00  0.00    +0.000 C 
ATOM      9  C   UNL     1       9.829  13.722  44.434  0.00  0.00    +0.000 C 
ATOM     10  C   UNL     1      10.548  14.478  42.130  0.00  0.00    +0.000 C 
ENDBRANCH   2   8
BRANCH   1  11
ATOM     11  O   UNL     1      12.512  11.171  43.815  0.00  0.00    +0.000 OA
ATOM     12  H   UNL     1      11.569  11.247  43.583  0.00  0.00    +0.000 HD
ENDBRANCH   1  11
TORSDOF 2
ENDMDL
MODEL 5
REMARK VINA RESULT:    -4.438      1.114      4.135
REMARK INTER + INTRA:          -5.015
REMARK INTER:                  -4.828
REMARK INTRA:                  -0.187
REMARK UNBOUND:                -0.188
REMARK  Name = corr_lig_vina.pdb
REMARK  5 active torsions:
REMARK  status: ('A' for Active; 'I' for Inactive)
REMARK    1  A    between atoms: O_1  and  C_2
REMARK    2  A    between atoms: C_3  and  C_6
REMARK    3  A    between atoms: C_6  and  C_9
REMARK    4  A    between atoms: C_6  and  C_10
REMARK    5  A    between atoms: C_7  and  C_11
REMARK                            x       y       z     vdW  Elec       q    Type
REMARK                         _______ _______ _______ _____ _____    ______ ____
ROOT
ATOM      1  C   UNL     1      13.929  12.452  44.568  0.00  0.00    +0.000 A 
ATOM      2  C   UNL     1      12.885  13.198  43.992  0.00  0.00    +0.000 A 
ATOM      3  C   UNL     1      15.086  13.086  45.022  0.00  0.00    +0.000 A 
ATOM      4  C   UNL     1      13.043  14.585  43.881  0.00  0.00    +0.000 A 
ATOM      5  C   UNL     1      15.232  14.467  44.900  0.00  0.00    +0.000 A 
ATOM      6  C   UNL     1      14.207  15.211  44.321  0.00  0.00    +0.000 A 
ATOM      7  C   UNL     1      16.488  15.163  45.395  0.00  0.00    +0.000 C 
ENDROOT
BRANCH   2   8
ATOM      8  C   UNL     1      11.580  12.521  43.549  0.00  0.00    +0.000 C 
ATOM      9  C   UNL     1      10.371  13.440  43.823  0.00  0.00    +0.000 C 
ATOM     10  C   UNL     1      11.572  12.067  42.072  0.00  0.00    +0.000 C 
ENDBRANCH   2   8
BRANCH   1  11
ATOM     11  O   UNL     1      13.842  11.099  44.712  0.00  0.00    +0.000 OA
ATOM     12  H   UNL     1      13.115  10.879  45.321  0.00  0.00    +0.000 HD
ENDBRANCH   1  11
TORSDOF 2
ENDMDL
MODEL 6
REMARK VINA RESULT:    -4.381      1.766      4.717
REMARK INTER + INTRA:          -4.953
REMARK INTER:                  -4.768
REMARK INTRA:                  -0.185
REMARK UNBOUND:                -0.188
REMARK  Name = corr_lig_vina.pdb
REMARK  5 active torsions:
REMARK  status: ('A' for Active; 'I' for Inactive)
REMARK    1  A    between atoms: O_1  and  C_2
REMARK    2  A    between atoms: C_3  and  C_6
REMARK    3  A    between atoms: C_6  and  C_9
REMARK    4  A    between atoms: C_6  and  C_10
REMARK    5  A    between atoms: C_7  and  C_11
REMARK                            x       y       z     vdW  Elec       q    Type
REMARK                         _______ _______ _______ _____ _____    ______ ____
ROOT
ATOM      1  C   UNL     1      16.714  13.953  45.171  0.00  0.00    +0.000 A 
ATOM      2  C   UNL     1      15.552  13.820  44.390  0.00  0.00    +0.000 A 
ATOM      3  C   UNL     1      17.861  14.545  44.640  0.00  0.00    +0.000 A 
ATOM      4  C   UNL     1      15.583  14.289  43.070  0.00  0.00    +0.000 A 
ATOM      5  C   UNL     1      17.879  15.002  43.324  0.00  0.00    +0.000 A 
ATOM      6  C   UNL     1      16.735  14.864  42.540  0.00  0.00    +0.000 A 
ATOM      7  C   UNL     1      19.123  15.649  42.742  0.00  0.00    +0.000 C 
ENDROOT
BRANCH   2   8
ATOM      8  C   UNL     1      14.264  13.232  44.982  0.00  0.00    +0.000 C 
ATOM      9  C   UNL     1      13.059  14.148  44.678  0.00  0.00    +0.000 C 
ATOM     10  C   UNL     1      13.958  11.789  44.523  0.00  0.00    +0.000 C 
ENDBRANCH   2   8
BRANCH   1  11
ATOM     11  O   UNL     1      16.755  13.524  46.464  0.00  0.00    +0.000 OA
ATOM     12  H   UNL     1      16.276  12.681  46.546  0.00  0.00    +0.000 HD
ENDBRANCH   1  11
TORSDOF 2
ENDMDL
MODEL 7
REMARK VINA RESULT:    -4.223      1.432      4.320
REMARK INTER + INTRA:          -4.781
REMARK INTER:                  -4.638
REMARK INTRA:                  -0.143
REMARK UNBOUND:                -0.188
REMARK  Name = corr_lig_vina.pdb
REMARK  5 active torsions:
REMARK  status: ('A' for Active; 'I' for Inactive)
REMARK    1  A    between atoms: O_1  and  C_2
REMARK    2  A    between atoms: C_3  and  C_6
REMARK    3  A    between atoms: C_6  and  C_9
REMARK    4  A    between atoms: C_6  and  C_10
REMARK    5  A    between atoms: C_7  and  C_11
REMARK                            x       y       z     vdW  Elec       q    Type
REMARK                         _______ _______ _______ _____ _____    ______ ____
ROOT
ATOM      1  C   UNL     1      14.244  13.497  45.062  0.00  0.00    +0.000 A 
ATOM      2  C   UNL     1      13.569  14.648  44.619  0.00  0.00    +0.000 A 
ATOM      3  C   UNL     1      15.634  13.494  45.184  0.00  0.00    +0.000 A 
ATOM      4  C   UNL     1      14.328  15.781  44.299  0.00  0.00    +0.000 A 
ATOM      5  C   UNL     1      16.377  14.626  44.856  0.00  0.00    +0.000 A 
ATOM      6  C   UNL     1      15.716  15.767  44.406  0.00  0.00    +0.000 A 
ATOM      7  C   UNL     1      17.890  14.630  44.989  0.00  0.00    +0.000 C 
ENDROOT
BRANCH   2   8
ATOM      8  C   UNL     1      12.036  14.686  44.544  0.00  0.00    +0.000 C 
ATOM      9  C   UNL     1      11.525  16.141  44.607  0.00  0.00    +0.000 C 
ATOM     10  C   UNL     1      11.445  13.973  43.307  0.00  0.00    +0.000 C 
ENDBRANCH   2   8
BRANCH   1  11
ATOM     11  O   UNL     1      13.570  12.360  45.396  0.00  0.00    +0.000 OA
ATOM     12  H   UNL     1      13.865  11.624  44.830  0.00  0.00    +0.000 HD
ENDBRANCH   1  11
TORSDOF 2
ENDMDL
MODEL 8
REMARK VINA RESULT:    -4.220      2.220      3.545
REMARK INTER + INTRA:          -4.779
REMARK INTER:                  -4.592
REMARK INTRA:                  -0.186
REMARK UNBOUND:                -0.188
REMARK  Name = corr_lig_vina.pdb
REMARK  5 active torsions:
REMARK  status: ('A' for Active; 'I' for Inactive)
REMARK    1  A    between atoms: O_1  and  C_2
REMARK    2  A    between atoms: C_3  and  C_6
REMARK    3  A    between atoms: C_6  and  C_9
REMARK    4  A    between atoms: C_6  and  C_10
REMARK    5  A    between atoms: C_7  and  C_11
REMARK                            x       y       z     vdW  Elec       q    Type
REMARK                         _______ _______ _______ _____ _____    ______ ____
ROOT
ATOM      1  C   UNL     1      16.979  13.897  43.053  0.00  0.00    +0.000 A 
ATOM      2  C   UNL     1      17.707  14.487  44.102  0.00  0.00    +0.000 A 
ATOM      3  C   UNL     1      15.730  13.324  43.292  0.00  0.00    +0.000 A 
ATOM      4  C   UNL     1      17.147  14.476  45.386  0.00  0.00    +0.000 A 
ATOM      5  C   UNL     1      15.187  13.315  44.576  0.00  0.00    +0.000 A 
ATOM      6  C   UNL     1      15.907  13.888  45.622  0.00  0.00    +0.000 A 
ATOM      7  C   UNL     1      13.827  12.695  44.842  0.00  0.00    +0.000 C 
ENDROOT
BRANCH   2   8
ATOM      8  C   UNL     1      19.052  15.179  43.840  0.00  0.00    +0.000 C 
ATOM      9  C   UNL     1      19.096  16.559  44.528  0.00  0.00    +0.000 C 
ATOM     10  C   UNL     1      20.285  14.344  44.255  0.00  0.00    +0.000 C 
ENDBRANCH   2   8
BRANCH   1  11
ATOM     11  O   UNL     1      17.459  13.876  41.777  0.00  0.00    +0.000 OA
ATOM     12  H   UNL     1      17.943  14.701  41.594  0.00  0.00    +0.000 HD
ENDBRANCH   1  11
TORSDOF 2
ENDMDL
MODEL 9
REMARK VINA RESULT:    -4.197      1.394      1.661
REMARK INTER + INTRA:          -4.754
REMARK INTER:                  -4.567
REMARK INTRA:                  -0.186
REMARK UNBOUND:                -0.188
REMARK  Name = corr_lig_vina.pdb
REMARK  5 active torsions:
REMARK  status: ('A' for Active; 'I' for Inactive)
REMARK    1  A    between atoms: O_1  and  C_2
REMARK    2  A    between atoms: C_3  and  C_6
REMARK    3  A    between atoms: C_6  and  C_9
REMARK    4  A    between atoms: C_6  and  C_10
REMARK    5  A    between atoms: C_7  and  C_11
REMARK                            x       y       z     vdW  Elec       q    Type
REMARK                         _______ _______ _______ _____ _____    ______ ____
ROOT
ATOM      1  C   UNL     1      12.459  12.910  44.044  0.00  0.00    +0.000 A 
ATOM      2  C   UNL     1      13.543  13.742  44.374  0.00  0.00    +0.000 A 
ATOM      3  C   UNL     1      11.189  13.450  43.837  0.00  0.00    +0.000 A 
ATOM      4  C   UNL     1      13.312  15.118  44.495  0.00  0.00    +0.000 A 
ATOM      5  C   UNL     1      10.971  14.820  43.967  0.00  0.00    +0.000 A 
ATOM      6  C   UNL     1      12.039  15.650  44.304  0.00  0.00    +0.000 A 
ATOM      7  C   UNL     1       9.592  15.414  43.740  0.00  0.00    +0.000 C 
ENDROOT
BRANCH   2   8
ATOM      8  C   UNL     1      14.958  13.169  44.539  0.00  0.00    +0.000 C 
ATOM      9  C   UNL     1      15.700  13.157  43.186  0.00  0.00    +0.000 C 
ATOM     10  C   UNL     1      15.814  13.893  45.603  0.00  0.00    +0.000 C 
ENDBRANCH   2   8
BRANCH   1  11
ATOM     11  O   UNL     1      12.612  11.562  43.904  0.00  0.00    +0.000 OA
ATOM     12  H   UNL     1      12.285  11.283  43.031  0.00  0.00    +0.000 HD
ENDBRANCH   1  11
TORSDOF 2
ENDMDL
MODEL 10
REMARK VINA RESULT:    -4.194      1.148      1.300
REMARK INTER + INTRA:          -4.751
REMARK INTER:                  -4.563
REMARK INTRA:                  -0.187
REMARK UNBOUND:                -0.188
REMARK  Name = corr_lig_vina.pdb
REMARK  5 active torsions:
REMARK  status: ('A' for Active; 'I' for Inactive)
REMARK    1  A    between atoms: O_1  and  C_2
REMARK    2  A    between atoms: C_3  and  C_6
REMARK    3  A    between atoms: C_6  and  C_9
REMARK    4  A    between atoms: C_6  and  C_10
REMARK    5  A    between atoms: C_7  and  C_11
REMARK                            x       y       z     vdW  Elec       q    Type
REMARK                         _______ _______ _______ _____ _____    ______ ____
ROOT
ATOM      1  C   UNL     1      14.055  12.831  43.231  0.00  0.00    +0.000 A 
ATOM      2  C   UNL     1      14.173  13.873  44.169  0.00  0.00    +0.000 A 
ATOM      3  C   UNL     1      12.802  12.318  42.896  0.00  0.00    +0.000 A 
ATOM      4  C   UNL     1      13.003  14.371  44.757  0.00  0.00    +0.000 A 
ATOM      5  C   UNL     1      11.647  12.818  43.494  0.00  0.00    +0.000 A 
ATOM      6  C   UNL     1      11.756  13.843  44.432  0.00  0.00    +0.000 A 
ATOM      7  C   UNL     1      10.280  12.265  43.132  0.00  0.00    +0.000 C 
ENDROOT
BRANCH   2   8
ATOM      8  C   UNL     1      15.539  14.492  44.496  0.00  0.00    +0.000 C 
ATOM      9  C   UNL     1      15.408  16.015  44.712  0.00  0.00    +0.000 C 
ATOM     10  C   UNL     1      16.252  13.848  45.706  0.00  0.00    +0.000 C 
ENDBRANCH   2   8
BRANCH   1  11
ATOM     11  O   UNL     1      15.150  12.302  42.614  0.00  0.00    +0.000 OA
ATOM     12  H   UNL     1      15.169  12.581  41.681  0.00  0.00    +0.000 HD
ENDBRANCH   1  11
TORSDOF 2
ENDMDL
MODEL 11
REMARK VINA RESULT:    -4.187      2.628      3.368
REMARK INTER + INTRA:          -4.743
REMARK INTER:                  -4.561
REMARK INTRA:                  -0.182
REMARK UNBOUND:                -0.188
REMARK  Name = corr_lig_vina.pdb
REMARK  5 active torsions:
REMARK  status: ('A' for Active; 'I' for Inactive)
REMARK    1  A    between atoms: O_1  and  C_2
REMARK    2  A    between atoms: C_3  and  C_6
REMARK    3  A    between atoms: C_6  and  C_9
REMARK    4  A    between atoms: C_6  and  C_10
REMARK    5  A    between atoms: C_7  and  C_11
REMARK                            x       y       z     vdW  Elec       q    Type
REMARK                         _______ _______ _______ _____ _____    ______ ____
ROOT
ATOM      1  C   UNL     1      16.300  13.980  45.218  0.00  0.00    +0.000 A 
ATOM      2  C   UNL     1      16.607  15.292  44.813  0.00  0.00    +0.000 A 
ATOM      3  C   UNL     1      15.631  13.111  44.356  0.00  0.00    +0.000 A 
ATOM      4  C   UNL     1      16.217  15.699  43.530  0.00  0.00    +0.000 A 
ATOM      5  C   UNL     1      15.244  13.531  43.085  0.00  0.00    +0.000 A 
ATOM      6  C   UNL     1      15.535  14.832  42.680  0.00  0.00    +0.000 A 
ATOM      7  C   UNL     1      14.518  12.588  42.141  0.00  0.00    +0.000 C 
ENDROOT
BRANCH   2   8
ATOM      8  C   UNL     1      17.400  16.236  45.727  0.00  0.00    +0.000 C 
ATOM      9  C   UNL     1      18.752  16.607  45.082  0.00  0.00    +0.000 C 
ATOM     10  C   UNL     1      16.637  17.520  46.126  0.00  0.00    +0.000 C 
ENDBRANCH   2   8
BRANCH   1  11
ATOM     11  O   UNL     1      16.652  13.515  46.450  0.00  0.00    +0.000 OA
ATOM     12  H   UNL     1      17.446  12.956  46.376  0.00  0.00    +0.000 HD
ENDBRANCH   1  11
TORSDOF 2
ENDMDL
MODEL 12
REMARK VINA RESULT:    -4.140      2.249      4.904
REMARK INTER + INTRA:          -4.691
REMARK INTER:                  -4.503
REMARK INTRA:                  -0.188
REMARK UNBOUND:                -0.188
REMARK  Name = corr_lig_vina.pdb
REMARK  5 active torsions:
REMARK  status: ('A' for Active; 'I' for Inactive)
REMARK    1  A    between atoms: O_1  and  C_2
REMARK    2  A    between atoms: C_3  and  C_6
REMARK    3  A    between atoms: C_6  and  C_9
REMARK    4  A    between atoms: C_6  and  C_10
REMARK    5  A    between atoms: C_7  and  C_11
REMARK                            x       y       z     vdW  Elec       q    Type
REMARK                         _______ _______ _______ _____ _____    ______ ____
ROOT
ATOM      1  C   UNL     1      11.138  12.469  43.176  0.00  0.00    +0.000 A 
ATOM      2  C   UNL     1      10.742  13.653  43.824  0.00  0.00    +0.000 A 
ATOM      3  C   UNL     1      12.429  11.968  43.344  0.00  0.00    +0.000 A 
ATOM      4  C   UNL     1      11.677  14.312  44.632  0.00  0.00    +0.000 A 
ATOM      5  C   UNL     1      13.351  12.638  44.146  0.00  0.00    +0.000 A 
ATOM      6  C   UNL     1      12.969  13.817  44.783  0.00  0.00    +0.000 A 
ATOM      7  C   UNL     1      14.757  12.095  44.335  0.00  0.00    +0.000 C 
ENDROOT
BRANCH   2   8
ATOM      8  C   UNL     1       9.305  14.179  43.700  0.00  0.00    +0.000 C 
ATOM      9  C   UNL     1       8.426  13.633  44.845  0.00  0.00    +0.000 C 
ATOM     10  C   UNL     1       9.198  15.720  43.643  0.00  0.00    +0.000 C 
ENDBRANCH   2   8
BRANCH   1  11
ATOM     11  O   UNL     1      10.280  11.772  42.379  0.00  0.00    +0.000 OA
ATOM     12  H   UNL     1      10.754  11.041  41.944  0.00  0.00    +0.000 HD
ENDBRANCH   1  11
TORSDOF 2
ENDMDL
MODEL 13
REMARK VINA RESULT:    -4.103      2.014      2.811
REMARK INTER + INTRA:          -4.652
REMARK INTER:                  -4.521
REMARK INTRA:                  -0.130
REMARK UNBOUND:                -0.188
REMARK  Name = corr_lig_vina.pdb
REMARK  5 active torsions:
REMARK  status: ('A' for Active; 'I' for Inactive)
REMARK    1  A    between atoms: O_1  and  C_2
REMARK    2  A    between atoms: C_3  and  C_6
REMARK    3  A    between atoms: C_6  and  C_9
REMARK    4  A    between atoms: C_6  and  C_10
REMARK    5  A    between atoms: C_7  and  C_11
REMARK                            x       y       z     vdW  Elec       q    Type
REMARK                         _______ _______ _______ _____ _____    ______ ____
ROOT
ATOM      1  C   UNL     1      12.400  14.352  44.591  0.00  0.00    +0.000 A 
ATOM      2  C   UNL     1      13.778  14.563  44.773  0.00  0.00    +0.000 A 
ATOM      3  C   UNL     1      11.556  15.418  44.280  0.00  0.00    +0.000 A 
ATOM      4  C   UNL     1      14.273  15.867  44.640  0.00  0.00    +0.000 A 
ATOM      5  C   UNL     1      12.060  16.711  44.156  0.00  0.00    +0.000 A 
ATOM      6  C   UNL     1      13.423  16.930  44.345  0.00  0.00    +0.000 A 
ATOM      7  C   UNL     1      11.146  17.874  43.814  0.00  0.00    +0.000 C 
ENDROOT
BRANCH   2   8
ATOM      8  C   UNL     1      14.729  13.390  45.051  0.00  0.00    +0.000 C 
ATOM      9  C   UNL     1      15.027  12.613  43.751  0.00  0.00    +0.000 C 
ATOM     10  C   UNL     1      16.053  13.796  45.737  0.00  0.00    +0.000 C 
ENDBRANCH   2   8
BRANCH   1  11
ATOM     11  O   UNL     1      11.850  13.110  44.700  0.00  0.00    +0.000 OA
ATOM     12  H   UNL     1      10.917  13.137  44.421  0.00  0.00    +0.000 HD
ENDBRANCH   1  11
TORSDOF 2
ENDMDL
MODEL 14
REMARK VINA RESULT:    -4.047      2.185      2.865
REMARK INTER + INTRA:          -4.591
REMARK INTER:                  -4.410
REMARK INTRA:                  -0.181
REMARK UNBOUND:                -0.188
REMARK  Name = corr_lig_vina.pdb
REMARK  5 active torsions:
REMARK  status: ('A' for Active; 'I' for Inactive)
REMARK    1  A    between atoms: O_1  and  C_2
REMARK    2  A    between atoms: C_3  and  C_6
REMARK    3  A    between atoms: C_6  and  C_9
REMARK    4  A    between atoms: C_6  and  C_10
REMARK    5  A    between atoms: C_7  and  C_11
REMARK                            x       y       z     vdW  Elec       q    Type
REMARK                         _______ _______ _______ _____ _____    ______ ____
ROOT
ATOM      1  C   UNL     1      13.484  15.974  44.697  0.00  0.00    +0.000 A 
ATOM      2  C   UNL     1      14.484  14.990  44.805  0.00  0.00    +0.000 A 
ATOM      3  C   UNL     1      12.141  15.611  44.600  0.00  0.00    +0.000 A 
ATOM      4  C   UNL     1      14.093  13.645  44.807  0.00  0.00    +0.000 A 
ATOM      5  C   UNL     1      11.767  14.269  44.596  0.00  0.00    +0.000 A 
ATOM      6  C   UNL     1      12.752  13.288  44.693  0.00  0.00    +0.000 A 
ATOM      7  C   UNL     1      10.306  13.868  44.494  0.00  0.00    +0.000 C 
ENDROOT
BRANCH   2   8
ATOM      8  C   UNL     1      15.959  15.377  44.979  0.00  0.00    +0.000 C 
ATOM      9  C   UNL     1      16.705  14.315  45.814  0.00  0.00    +0.000 C 
ATOM     10  C   UNL     1      16.709  15.625  43.651  0.00  0.00    +0.000 C 
ENDBRANCH   2   8
BRANCH   1  11
ATOM     11  O   UNL     1      13.791  17.303  44.694  0.00  0.00    +0.000 OA
ATOM     12  H   UNL     1      13.698  17.664  45.594  0.00  0.00    +0.000 HD
ENDBRANCH   1  11
TORSDOF 2
ENDMDL
MODEL 15
REMARK VINA RESULT:    -4.023      1.932      4.646
REMARK INTER + INTRA:          -4.564
REMARK INTER:                  -4.377
REMARK INTRA:                  -0.187
REMARK UNBOUND:                -0.188
REMARK  Name = corr_lig_vina.pdb
REMARK  5 active torsions:
REMARK  status: ('A' for Active; 'I' for Inactive)
REMARK    1  A    between atoms: O_1  and  C_2
REMARK    2  A    between atoms: C_3  and  C_6
REMARK    3  A    between atoms: C_6  and  C_9
REMARK    4  A    between atoms: C_6  and  C_10
REMARK    5  A    between atoms: C_7  and  C_11
REMARK                            x       y       z     vdW  Elec       q    Type
REMARK                         _______ _______ _______ _____ _____    ______ ____
ROOT
ATOM      1  C   UNL     1      12.950  14.919  44.256  0.00  0.00    +0.000 A 
ATOM      2  C   UNL     1      12.391  13.676  43.909  0.00  0.00    +0.000 A 
ATOM      3  C   UNL     1      14.225  14.989  44.818  0.00  0.00    +0.000 A 
ATOM      4  C   UNL     1      13.144  12.519  44.149  0.00  0.00    +0.000 A 
ATOM      5  C   UNL     1      14.961  13.831  45.056  0.00  0.00    +0.000 A 
ATOM      6  C   UNL     1      14.410  12.594  44.725  0.00  0.00    +0.000 A 
ATOM      7  C   UNL     1      16.350  13.902  45.664  0.00  0.00    +0.000 C 
ENDROOT
BRANCH   2   8
ATOM      8  C   UNL     1      11.017  13.589  43.230  0.00  0.00    +0.000 C 
ATOM      9  C   UNL     1      10.999  12.455  42.183  0.00  0.00    +0.000 C 
ATOM     10  C   UNL     1       9.835  13.418  44.211  0.00  0.00    +0.000 C 
ENDBRANCH   2   8
BRANCH   1  11
ATOM     11  O   UNL     1      12.277  16.086  44.047  0.00  0.00    +0.000 OA
ATOM     12  H   UNL     1      12.234  16.595  44.876  0.00  0.00    +0.000 HD
ENDBRANCH   1  11
TORSDOF 2
ENDMDL
MODEL 16
REMARK VINA RESULT:    -3.973      2.513      4.115
REMARK INTER + INTRA:          -4.510
REMARK INTER:                  -4.329
REMARK INTRA:                  -0.181
REMARK UNBOUND:                -0.188
REMARK  Name = corr_lig_vina.pdb
REMARK  5 active torsions:
REMARK  status: ('A' for Active; 'I' for Inactive)
REMARK    1  A    between atoms: O_1  and  C_2
REMARK    2  A    between atoms: C_3  and  C_6
REMARK    3  A    between atoms: C_6  and  C_9
REMARK    4  A    between atoms: C_6  and  C_10
REMARK    5  A    between atoms: C_7  and  C_11
REMARK                            x       y       z     vdW  Elec       q    Type
REMARK                         _______ _______ _______ _____ _____    ______ ____
ROOT
ATOM      1  C   UNL     1      11.903  14.557  44.417  0.00  0.00    +0.000 A 
ATOM      2  C   UNL     1      12.723  15.690  44.567  0.00  0.00    +0.000 A 
ATOM      3  C   UNL     1      12.466  13.282  44.338  0.00  0.00    +0.000 A 
ATOM      4  C   UNL     1      14.109  15.504  44.626  0.00  0.00    +0.000 A 
ATOM      5  C   UNL     1      13.847  13.112  44.392  0.00  0.00    +0.000 A 
ATOM      6  C   UNL     1      14.666  14.231  44.529  0.00  0.00    +0.000 A 
ATOM      7  C   UNL     1      14.465  11.727  44.309  0.00  0.00    +0.000 C 
ENDROOT
BRANCH   2   8
ATOM      8  C   UNL     1      12.114  17.091  44.722  0.00  0.00    +0.000 C 
ATOM      9  C   UNL     1      13.019  17.982  45.599  0.00  0.00    +0.000 C 
ATOM     10  C   UNL     1      11.812  17.802  43.384  0.00  0.00    +0.000 C 
ENDBRANCH   2   8
BRANCH   1  11
ATOM     11  O   UNL     1      10.546  14.662  44.358  0.00  0.00    +0.000 OA
ATOM     12  H   UNL     1      10.213  14.190  43.574  0.00  0.00    +0.000 HD
ENDBRANCH   1  11
TORSDOF 2
ENDMDL
MODEL 17
REMARK VINA RESULT:    -3.964      2.533      3.995
REMARK INTER + INTRA:          -4.499
REMARK INTER:                  -4.329
REMARK INTRA:                  -0.171
REMARK UNBOUND:                -0.188
REMARK  Name = corr_lig_vina.pdb
REMARK  5 active torsions:
REMARK  status: ('A' for Active; 'I' for Inactive)
REMARK    1  A    between atoms: O_1  and  C_2
REMARK    2  A    between atoms: C_3  and  C_6
REMARK    3  A    between atoms: C_6  and  C_9
REMARK    4  A    between atoms: C_6  and  C_10
REMARK    5  A    between atoms: C_7  and  C_11
REMARK                            x       y       z     vdW  Elec       q    Type
REMARK                         _______ _______ _______ _____ _____    ______ ____
ROOT
ATOM      1  C   UNL     1      14.452  15.483  44.459  0.00  0.00    +0.000 A 
ATOM      2  C   UNL     1      13.130  15.952  44.563  0.00  0.00    +0.000 A 
ATOM      3  C   UNL     1      14.715  14.114  44.403  0.00  0.00    +0.000 A 
ATOM      4  C   UNL     1      12.094  15.011  44.615  0.00  0.00    +0.000 A 
ATOM      5  C   UNL     1      13.676  13.188  44.461  0.00  0.00    +0.000 A 
ATOM      6  C   UNL     1      12.364  13.645  44.575  0.00  0.00    +0.000 A 
ATOM      7  C   UNL     1      13.956  11.697  44.397  0.00  0.00    +0.000 C 
ENDROOT
BRANCH   2   8
ATOM      8  C   UNL     1      12.822  17.456  44.559  0.00  0.00    +0.000 C 
ATOM      9  C   UNL     1      11.414  17.720  43.986  0.00  0.00    +0.000 C 
ATOM     10  C   UNL     1      12.964  18.135  45.941  0.00  0.00    +0.000 C 
ENDBRANCH   2   8
BRANCH   1  11
ATOM     11  O   UNL     1      15.509  16.342  44.399  0.00  0.00    +0.000 OA
ATOM     12  H   UNL     1      16.332  15.841  44.251  0.00  0.00    +0.000 HD
ENDBRANCH   1  11
TORSDOF 2
ENDMDL
MODEL 18
REMARK VINA RESULT:    -3.918      1.672      4.704
REMARK INTER + INTRA:          -4.450
REMARK INTER:                  -4.268
REMARK INTRA:                  -0.183
REMARK UNBOUND:                -0.188
REMARK  Name = corr_lig_vina.pdb
REMARK  5 active torsions:
REMARK  status: ('A' for Active; 'I' for Inactive)
REMARK    1  A    between atoms: O_1  and  C_2
REMARK    2  A    between atoms: C_3  and  C_6
REMARK    3  A    between atoms: C_6  and  C_9
REMARK    4  A    between atoms: C_6  and  C_10
REMARK    5  A    between atoms: C_7  and  C_11
REMARK                            x       y       z     vdW  Elec       q    Type
REMARK                         _______ _______ _______ _____ _____    ______ ____
ROOT
ATOM      1  C   UNL     1      16.123  14.215  42.906  0.00  0.00    +0.000 A 
ATOM      2  C   UNL     1      15.300  13.972  44.021  0.00  0.00    +0.000 A 
ATOM      3  C   UNL     1      17.481  14.485  43.074  0.00  0.00    +0.000 A 
ATOM      4  C   UNL     1      15.879  14.017  45.295  0.00  0.00    +0.000 A 
ATOM      5  C   UNL     1      18.043  14.532  44.349  0.00  0.00    +0.000 A 
ATOM      6  C   UNL     1      17.232  14.303  45.458  0.00  0.00    +0.000 A 
ATOM      7  C   UNL     1      19.521  14.823  44.537  0.00  0.00    +0.000 C 
ENDROOT
BRANCH   2   8
ATOM      8  C   UNL     1      13.819  13.608  43.846  0.00  0.00    +0.000 C 
ATOM      9  C   UNL     1      13.560  12.154  44.294  0.00  0.00    +0.000 C 
ATOM     10  C   UNL     1      12.842  14.564  44.569  0.00  0.00    +0.000 C 
ENDBRANCH   2   8
BRANCH   1  11
ATOM     11  O   UNL     1      15.628  14.183  41.636  0.00  0.00    +0.000 OA
ATOM     12  H   UNL     1      16.013  13.429  41.152  0.00  0.00    +0.000 HD
ENDBRANCH   1  11
TORSDOF 2
ENDMDL
MODEL 19
REMARK VINA RESULT:    -3.847      2.362      3.647
REMARK INTER + INTRA:          -4.373
REMARK INTER:                  -4.185
REMARK INTRA:                  -0.188
REMARK UNBOUND:                -0.188
REMARK  Name = corr_lig_vina.pdb
REMARK  5 active torsions:
REMARK  status: ('A' for Active; 'I' for Inactive)
REMARK    1  A    between atoms: O_1  and  C_2
REMARK    2  A    between atoms: C_3  and  C_6
REMARK    3  A    between atoms: C_6  and  C_9
REMARK    4  A    between atoms: C_6  and  C_10
REMARK    5  A    between atoms: C_7  and  C_11
REMARK                            x       y       z     vdW  Elec       q    Type
REMARK                         _______ _______ _______ _____ _____    ______ ____
ROOT
ATOM      1  C   UNL     1      10.917  12.812  42.342  0.00  0.00    +0.000 A 
ATOM      2  C   UNL     1      11.420  13.377  43.528  0.00  0.00    +0.000 A 
ATOM      3  C   UNL     1       9.542  12.696  42.141  0.00  0.00    +0.000 A 
ATOM      4  C   UNL     1      10.506  13.810  44.496  0.00  0.00    +0.000 A 
ATOM      5  C   UNL     1       8.643  13.125  43.116  0.00  0.00    +0.000 A 
ATOM      6  C   UNL     1       9.134  13.676  44.298  0.00  0.00    +0.000 A 
ATOM      7  C   UNL     1       7.145  13.003  42.901  0.00  0.00    +0.000 C 
ENDROOT
BRANCH   2   8
ATOM      8  C   UNL     1      12.929  13.572  43.733  0.00  0.00    +0.000 C 
ATOM      9  C   UNL     1      13.212  14.909  44.449  0.00  0.00    +0.000 C 
ATOM     10  C   UNL     1      13.620  12.413  44.489  0.00  0.00    +0.000 C 
ENDBRANCH   2   8
BRANCH   1  11
ATOM     11  O   UNL     1      11.748  12.374  41.354  0.00  0.00    +0.000 OA
ATOM     12  H   UNL     1      12.265  13.121  41.003  0.00  0.00    +0.000 HD
ENDBRANCH   1  11
TORSDOF 2
ENDMDL
