MODEL 1
REMARK VINA RESULT:    -6.987      0.000      0.000
REMARK INTER + INTRA:          -7.901
REMARK INTER:                  -7.804
REMARK INTRA:                  -0.096
REMARK UNBOUND:                -0.096
REMARK  Name = opt44.pdb
REMARK  3 active torsions:
REMARK  status: ('A' for Active; 'I' for Inactive)
REMARK    1  A    between atoms: C_5  and  O_9
REMARK    2  A    between atoms: C_7  and  O_13
REMARK    3  A    between atoms: C_16  and  C_19
REMARK                            x       y       z     vdW  Elec       q    Type
REMARK                         _______ _______ _______ _____ _____    ______ ____
ROOT
ATOM      1  O   UNL     1      11.508  11.402  43.415  0.00  0.00    +0.000 OA
ATOM      2  C   UNL     1      11.606  12.591  43.665  0.00  0.00    +0.000 C 
ATOM      3  C   UNL     1      12.923  13.181  44.102  0.00  0.00    +0.000 A 
ATOM      4  C   UNL     1      10.404  13.492  43.538  0.00  0.00    +0.000 A 
ATOM      5  C   UNL     1      14.075  12.380  44.225  0.00  0.00    +0.000 A 
ATOM      6  C   UNL     1      13.014  14.548  44.396  0.00  0.00    +0.000 A 
ATOM      7  C   UNL     1       9.151  12.985  43.136  0.00  0.00    +0.000 A 
ATOM      8  C   UNL     1      10.522  14.859  43.819  0.00  0.00    +0.000 A 
ATOM      9  C   UNL     1      15.282  12.939  44.641  0.00  0.00    +0.000 A 
ATOM     10  C   UNL     1      11.823  15.449  44.265  0.00  0.00    +0.000 C 
ATOM     11  C   UNL     1      14.232  15.093  44.814  0.00  0.00    +0.000 A 
ATOM     12  C   UNL     1       8.053  13.833  43.007  0.00  0.00    +0.000 A 
ATOM     13  C   UNL     1       9.408  15.698  43.684  0.00  0.00    +0.000 A 
ATOM     14  C   UNL     1      15.371  14.298  44.943  0.00  0.00    +0.000 A 
ATOM     15  O   UNL     1      11.901  16.638  44.511  0.00  0.00    +0.000 OA
ATOM     16  C   UNL     1       8.181  15.189  43.277  0.00  0.00    +0.000 A 
ENDROOT
BRANCH  14  17
ATOM     17  C   UNL     1      16.671  14.900  45.397  0.00  0.00    +0.000 C 
ATOM     18  O   UNL     1      17.586  14.149  45.670  0.00  0.00    +0.000 OA
ATOM     19  O   UNL     1      16.749  16.110  45.471  0.00  0.00    +0.000 OA
ENDBRANCH  14  17
BRANCH   5  20
ATOM     20  O   UNL     1      14.053  11.040  43.937  0.00  0.00    +0.000 OA
ATOM     21  H   UNL     1      14.861  10.826  43.411  0.00  0.00    +0.000 HD
ENDBRANCH   5  20
BRANCH   7  22
ATOM     22  O   UNL     1       8.956  11.660  42.863  0.00  0.00    +0.000 OA
ATOM     23  H   UNL     1       9.213  11.143  43.668  0.00  0.00    +0.000 HD
ENDBRANCH   7  22
TORSDOF 3
ENDMDL
MODEL 2
REMARK VINA RESULT:    -6.934      1.176      1.476
REMARK INTER + INTRA:          -7.841
REMARK INTER:                  -7.745
REMARK INTRA:                  -0.096
REMARK UNBOUND:                -0.096
REMARK  Name = opt44.pdb
REMARK  3 active torsions:
REMARK  status: ('A' for Active; 'I' for Inactive)
REMARK    1  A    between atoms: C_5  and  O_9
REMARK    2  A    between atoms: C_7  and  O_13
REMARK    3  A    between atoms: C_16  and  C_19
REMARK                            x       y       z     vdW  Elec       q    Type
REMARK                         _______ _______ _______ _____ _____    ______ ____
ROOT
ATOM      1  O   UNL     1      12.405  12.132  44.253  0.00  0.00    +0.000 OA
ATOM      2  C   UNL     1      12.624  13.331  44.292  0.00  0.00    +0.000 C 
ATOM      3  C   UNL     1      14.022  13.853  44.510  0.00  0.00    +0.000 A 
ATOM      4  C   UNL     1      11.492  14.312  44.121  0.00  0.00    +0.000 A 
ATOM      5  C   UNL     1      15.111  12.973  44.665  0.00  0.00    +0.000 A 
ATOM      6  C   UNL     1      14.253  15.234  44.563  0.00  0.00    +0.000 A 
ATOM      7  C   UNL     1      10.168  13.872  43.918  0.00  0.00    +0.000 A 
ATOM      8  C   UNL     1      11.749  15.689  44.158  0.00  0.00    +0.000 A 
ATOM      9  C   UNL     1      16.395  13.472  44.877  0.00  0.00    +0.000 A 
ATOM     10  C   UNL     1      13.132  16.213  44.387  0.00  0.00    +0.000 C 
ATOM     11  C   UNL     1      15.547  15.717  44.779  0.00  0.00    +0.000 A 
ATOM     12  C   UNL     1       9.136  14.791  43.744  0.00  0.00    +0.000 A 
ATOM     13  C   UNL     1      10.699  16.600  43.983  0.00  0.00    +0.000 A 
ATOM     14  C   UNL     1      16.625  14.847  44.940  0.00  0.00    +0.000 A 
ATOM     15  O   UNL     1      13.331  17.413  44.424  0.00  0.00    +0.000 OA
ATOM     16  C   UNL     1       9.400  16.154  43.772  0.00  0.00    +0.000 A 
ENDROOT
BRANCH  14  17
ATOM     17  C   UNL     1      18.008  15.384  45.174  0.00  0.00    +0.000 C 
ATOM     18  O   UNL     1      18.952  14.648  44.964  0.00  0.00    +0.000 OA
ATOM     19  O   UNL     1      18.122  16.529  45.562  0.00  0.00    +0.000 OA
ENDBRANCH  14  17
BRANCH   5  20
ATOM     20  O   UNL     1      14.951  11.613  44.607  0.00  0.00    +0.000 OA
ATOM     21  H   UNL     1      15.179  11.240  45.493  0.00  0.00    +0.000 HD
ENDBRANCH   5  20
BRANCH   7  22
ATOM     22  O   UNL     1       9.840  12.545  43.887  0.00  0.00    +0.000 OA
ATOM     23  H   UNL     1      10.423  12.073  44.533  0.00  0.00    +0.000 HD
ENDBRANCH   7  22
TORSDOF 3
ENDMDL
MODEL 3
REMARK VINA RESULT:    -6.795      1.020      1.260
REMARK INTER + INTRA:          -7.686
REMARK INTER:                  -7.600
REMARK INTRA:                  -0.086
REMARK UNBOUND:                -0.096
REMARK  Name = opt44.pdb
REMARK  3 active torsions:
REMARK  status: ('A' for Active; 'I' for Inactive)
REMARK    1  A    between atoms: C_5  and  O_9
REMARK    2  A    between atoms: C_7  and  O_13
REMARK    3  A    between atoms: C_16  and  C_19
REMARK                            x       y       z     vdW  Elec       q    Type
REMARK                         _______ _______ _______ _____ _____    ______ ____
ROOT
ATOM      1  O   UNL     1      10.275  12.157  43.375  0.00  0.00    +0.000 OA
ATOM      2  C   UNL     1      10.712  13.269  43.612  0.00  0.00    +0.000 C 
ATOM      3  C   UNL     1      12.146  13.460  44.039  0.00  0.00    +0.000 A 
ATOM      4  C   UNL     1       9.819  14.477  43.481  0.00  0.00    +0.000 A 
ATOM      5  C   UNL     1      13.019  12.362  44.166  0.00  0.00    +0.000 A 
ATOM      6  C   UNL     1      12.628  14.746  44.318  0.00  0.00    +0.000 A 
ATOM      7  C   UNL     1       8.470  14.349  43.088  0.00  0.00    +0.000 A 
ATOM      8  C   UNL     1      10.327  15.755  43.746  0.00  0.00    +0.000 A 
ATOM      9  C   UNL     1      14.338  12.554  44.573  0.00  0.00    +0.000 A 
ATOM     10  C   UNL     1      11.745  15.949  44.181  0.00  0.00    +0.000 C 
ATOM     11  C   UNL     1      13.954  14.920  44.726  0.00  0.00    +0.000 A 
ATOM     12  C   UNL     1       7.662  15.475  42.953  0.00  0.00    +0.000 A 
ATOM     13  C   UNL     1       9.501  16.878  43.607  0.00  0.00    +0.000 A 
ATOM     14  C   UNL     1      14.817  13.833  44.860  0.00  0.00    +0.000 A 
ATOM     15  O   UNL     1      12.164  17.068  44.414  0.00  0.00    +0.000 OA
ATOM     16  C   UNL     1       8.176  16.739  43.209  0.00  0.00    +0.000 A 
ENDROOT
BRANCH  14  17
ATOM     17  C   UNL     1      16.238  14.039  45.302  0.00  0.00    +0.000 C 
ATOM     18  O   UNL     1      17.034  14.467  44.491  0.00  0.00    +0.000 OA
ATOM     19  O   UNL     1      16.527  13.767  46.450  0.00  0.00    +0.000 OA
ENDBRANCH  14  17
BRANCH   5  20
ATOM     20  O   UNL     1      12.611  11.083  43.893  0.00  0.00    +0.000 OA
ATOM     21  H   UNL     1      12.915  10.500  44.630  0.00  0.00    +0.000 HD
ENDBRANCH   5  20
BRANCH   7  22
ATOM     22  O   UNL     1       7.901  13.133  42.830  0.00  0.00    +0.000 OA
ATOM     23  H   UNL     1       7.063  13.291  42.326  0.00  0.00    +0.000 HD
ENDBRANCH   7  22
TORSDOF 3
ENDMDL
MODEL 4
REMARK VINA RESULT:    -6.667      1.516      5.948
REMARK INTER + INTRA:          -7.543
REMARK INTER:                  -7.446
REMARK INTRA:                  -0.097
REMARK UNBOUND:                -0.096
REMARK  Name = opt44.pdb
REMARK  3 active torsions:
REMARK  status: ('A' for Active; 'I' for Inactive)
REMARK    1  A    between atoms: C_5  and  O_9
REMARK    2  A    between atoms: C_7  and  O_13
REMARK    3  A    between atoms: C_16  and  C_19
REMARK                            x       y       z     vdW  Elec       q    Type
REMARK                         _______ _______ _______ _____ _____    ______ ____
ROOT
ATOM      1  O   UNL     1      12.007  11.373  43.453  0.00  0.00    +0.000 OA
ATOM      2  C   UNL     1      12.005  12.564  43.713  0.00  0.00    +0.000 C 
ATOM      3  C   UNL     1      10.731  13.367  43.643  0.00  0.00    +0.000 A 
ATOM      4  C   UNL     1      13.286  13.252  44.111  0.00  0.00    +0.000 A 
ATOM      5  C   UNL     1       9.510  12.765  43.286  0.00  0.00    +0.000 A 
ATOM      6  C   UNL     1      10.751  14.738  43.935  0.00  0.00    +0.000 A 
ATOM      7  C   UNL     1      14.503  12.544  44.186  0.00  0.00    +0.000 A 
ATOM      8  C   UNL     1      13.280  14.619  44.417  0.00  0.00    +0.000 A 
ATOM      9  C   UNL     1       8.343  13.524  43.215  0.00  0.00    +0.000 A 
ATOM     10  C   UNL     1      12.021  15.425  44.338  0.00  0.00    +0.000 C 
ATOM     11  C   UNL     1       9.572  15.485  43.858  0.00  0.00    +0.000 A 
ATOM     12  C   UNL     1      15.676  13.190  44.573  0.00  0.00    +0.000 A 
ATOM     13  C   UNL     1      14.468  15.254  44.802  0.00  0.00    +0.000 A 
ATOM     14  C   UNL     1       8.363  14.890  43.496  0.00  0.00    +0.000 A 
ATOM     15  O   UNL     1      12.040  16.613  44.600  0.00  0.00    +0.000 OA
ATOM     16  C   UNL     1      15.659  14.543  44.884  0.00  0.00    +0.000 A 
ENDROOT
BRANCH  14  17
ATOM     17  C   UNL     1       7.106  15.709  43.416  0.00  0.00    +0.000 C 
ATOM     18  O   UNL     1       7.154  16.870  43.770  0.00  0.00    +0.000 OA
ATOM     19  O   UNL     1       6.098  15.174  43.001  0.00  0.00    +0.000 OA
ENDBRANCH  14  17
BRANCH   5  20
ATOM     20  O   UNL     1       9.423  11.426  43.004  0.00  0.00    +0.000 OA
ATOM     21  H   UNL     1       8.468  11.194  42.906  0.00  0.00    +0.000 HD
ENDBRANCH   5  20
BRANCH   7  22
ATOM     22  O   UNL     1      14.590  11.213  43.886  0.00  0.00    +0.000 OA
ATOM     23  H   UNL     1      14.527  10.705  44.734  0.00  0.00    +0.000 HD
ENDBRANCH   7  22
TORSDOF 3
ENDMDL
MODEL 5
REMARK VINA RESULT:    -6.643      1.571      5.941
REMARK INTER + INTRA:          -7.516
REMARK INTER:                  -7.427
REMARK INTRA:                  -0.089
REMARK UNBOUND:                -0.096
REMARK  Name = opt44.pdb
REMARK  3 active torsions:
REMARK  status: ('A' for Active; 'I' for Inactive)
REMARK    1  A    between atoms: C_5  and  O_9
REMARK    2  A    between atoms: C_7  and  O_13
REMARK    3  A    between atoms: C_16  and  C_19
REMARK                            x       y       z     vdW  Elec       q    Type
REMARK                         _______ _______ _______ _____ _____    ______ ____
ROOT
ATOM      1  O   UNL     1      12.415  11.287  43.658  0.00  0.00    +0.000 OA
ATOM      2  C   UNL     1      12.324  12.494  43.803  0.00  0.00    +0.000 C 
ATOM      3  C   UNL     1      11.023  13.207  43.538  0.00  0.00    +0.000 A 
ATOM      4  C   UNL     1      13.521  13.293  44.252  0.00  0.00    +0.000 A 
ATOM      5  C   UNL     1       9.876  12.500  43.126  0.00  0.00    +0.000 A 
ATOM      6  C   UNL     1      10.941  14.596  43.700  0.00  0.00    +0.000 A 
ATOM      7  C   UNL     1      14.761  12.671  44.509  0.00  0.00    +0.000 A 
ATOM      8  C   UNL     1      13.412  14.679  44.425  0.00  0.00    +0.000 A 
ATOM      9  C   UNL     1       8.684  13.176  42.875  0.00  0.00    +0.000 A 
ATOM     10  C   UNL     1      12.126  15.394  44.153  0.00  0.00    +0.000 C 
ATOM     11  C   UNL     1       9.737  15.259  43.441  0.00  0.00    +0.000 A 
ATOM     12  C   UNL     1      15.853  13.420  44.940  0.00  0.00    +0.000 A 
ATOM     13  C   UNL     1      14.520  15.418  44.859  0.00  0.00    +0.000 A 
ATOM     14  C   UNL     1       8.604  14.561  43.025  0.00  0.00    +0.000 A 
ATOM     15  O   UNL     1      12.056  16.600  44.302  0.00  0.00    +0.000 OA
ATOM     16  C   UNL     1      15.733  14.792  45.119  0.00  0.00    +0.000 A 
ENDROOT
BRANCH  14  17
ATOM     17  C   UNL     1       7.319  15.290  42.750  0.00  0.00    +0.000 C 
ATOM     18  O   UNL     1       6.843  15.969  43.637  0.00  0.00    +0.000 OA
ATOM     19  O   UNL     1       6.813  15.167  41.652  0.00  0.00    +0.000 OA
ENDBRANCH  14  17
BRANCH   5  20
ATOM     20  O   UNL     1       9.889  11.139  42.966  0.00  0.00    +0.000 OA
ATOM     21  H   UNL     1      10.831  10.843  42.933  0.00  0.00    +0.000 HD
ENDBRANCH   5  20
BRANCH   7  22
ATOM     22  O   UNL     1      14.947  11.326  44.345  0.00  0.00    +0.000 OA
ATOM     23  H   UNL     1      15.750  11.198  43.779  0.00  0.00    +0.000 HD
ENDBRANCH   7  22
TORSDOF 3
ENDMDL
MODEL 6
REMARK VINA RESULT:    -6.379      1.350      6.677
REMARK INTER + INTRA:          -7.222
REMARK INTER:                  -7.125
REMARK INTRA:                  -0.096
REMARK UNBOUND:                -0.096
REMARK  Name = opt44.pdb
REMARK  3 active torsions:
REMARK  status: ('A' for Active; 'I' for Inactive)
REMARK    1  A    between atoms: C_5  and  O_9
REMARK    2  A    between atoms: C_7  and  O_13
REMARK    3  A    between atoms: C_16  and  C_19
REMARK                            x       y       z     vdW  Elec       q    Type
REMARK                         _______ _______ _______ _____ _____    ______ ____
ROOT
ATOM      1  O   UNL     1      11.923  16.688  44.252  0.00  0.00    +0.000 OA
ATOM      2  C   UNL     1      12.033  15.476  44.185  0.00  0.00    +0.000 C 
ATOM      3  C   UNL     1      10.835  14.607  43.896  0.00  0.00    +0.000 A 
ATOM      4  C   UNL     1      13.378  14.826  44.391  0.00  0.00    +0.000 A 
ATOM      5  C   UNL     1       9.561  15.170  43.686  0.00  0.00    +0.000 A 
ATOM      6  C   UNL     1      10.978  13.215  43.833  0.00  0.00    +0.000 A 
ATOM      7  C   UNL     1      14.526  15.596  44.667  0.00  0.00    +0.000 A 
ATOM      8  C   UNL     1      13.502  13.433  44.306  0.00  0.00    +0.000 A 
ATOM      9  C   UNL     1       8.461  14.353  43.431  0.00  0.00    +0.000 A 
ATOM     10  C   UNL     1      12.315  12.565  44.031  0.00  0.00    +0.000 C 
ATOM     11  C   UNL     1       9.865  12.409  43.578  0.00  0.00    +0.000 A 
ATOM     12  C   UNL     1      15.765  14.983  44.838  0.00  0.00    +0.000 A 
ATOM     13  C   UNL     1      14.755  12.833  44.481  0.00  0.00    +0.000 A 
ATOM     14  C   UNL     1       8.602  12.966  43.379  0.00  0.00    +0.000 A 
ATOM     15  O   UNL     1      12.444  11.357  43.969  0.00  0.00    +0.000 OA
ATOM     16  C   UNL     1      15.882  13.603  44.742  0.00  0.00    +0.000 A 
ENDROOT
BRANCH  14  17
ATOM     17  C   UNL     1       7.416  12.084  43.109  0.00  0.00    +0.000 C 
ATOM     18  O   UNL     1       6.313  12.594  43.095  0.00  0.00    +0.000 OA
ATOM     19  O   UNL     1       7.611  10.901  42.917  0.00  0.00    +0.000 OA
ENDBRANCH  14  17
BRANCH   5  20
ATOM     20  O   UNL     1       9.359  16.526  43.719  0.00  0.00    +0.000 OA
ATOM     21  H   UNL     1       8.402  16.689  43.896  0.00  0.00    +0.000 HD
ENDBRANCH   5  20
BRANCH   7  22
ATOM     22  O   UNL     1      14.478  16.958  44.782  0.00  0.00    +0.000 OA
ATOM     23  H   UNL     1      13.542  17.213  44.984  0.00  0.00    +0.000 HD
ENDBRANCH   7  22
TORSDOF 3
ENDMDL
MODEL 7
REMARK VINA RESULT:    -6.376      1.503      6.580
REMARK INTER + INTRA:          -7.218
REMARK INTER:                  -7.130
REMARK INTRA:                  -0.088
REMARK UNBOUND:                -0.096
REMARK  Name = opt44.pdb
REMARK  3 active torsions:
REMARK  status: ('A' for Active; 'I' for Inactive)
REMARK    1  A    between atoms: C_5  and  O_9
REMARK    2  A    between atoms: C_7  and  O_13
REMARK    3  A    between atoms: C_16  and  C_19
REMARK                            x       y       z     vdW  Elec       q    Type
REMARK                         _______ _______ _______ _____ _____    ______ ____
ROOT
ATOM      1  O   UNL     1      12.945  17.284  43.931  0.00  0.00    +0.000 OA
ATOM      2  C   UNL     1      13.020  16.079  44.100  0.00  0.00    +0.000 C 
ATOM      3  C   UNL     1      11.860  15.179  43.758  0.00  0.00    +0.000 A 
ATOM      4  C   UNL     1      14.283  15.471  44.655  0.00  0.00    +0.000 A 
ATOM      5  C   UNL     1      10.664  15.701  43.228  0.00  0.00    +0.000 A 
ATOM      6  C   UNL     1      11.961  13.797  43.969  0.00  0.00    +0.000 A 
ATOM      7  C   UNL     1      15.392  16.273  44.993  0.00  0.00    +0.000 A 
ATOM      8  C   UNL     1      14.369  14.085  44.840  0.00  0.00    +0.000 A 
ATOM      9  C   UNL     1       9.597  14.856  42.928  0.00  0.00    +0.000 A 
ATOM     10  C   UNL     1      13.217  13.187  44.514  0.00  0.00    +0.000 C 
ATOM     11  C   UNL     1      10.880  12.964  43.664  0.00  0.00    +0.000 A 
ATOM     12  C   UNL     1      16.559  15.694  45.488  0.00  0.00    +0.000 A 
ATOM     13  C   UNL     1      15.548  13.519  45.341  0.00  0.00    +0.000 A 
ATOM     14  C   UNL     1       9.693  13.482  43.147  0.00  0.00    +0.000 A 
ATOM     15  O   UNL     1      13.310  11.987  44.691  0.00  0.00    +0.000 OA
ATOM     16  C   UNL     1      16.639  14.319  45.659  0.00  0.00    +0.000 A 
ENDROOT
BRANCH  14  17
ATOM     17  C   UNL     1       8.541  12.572  42.828  0.00  0.00    +0.000 C 
ATOM     18  O   UNL     1       8.027  11.956  43.739  0.00  0.00    +0.000 OA
ATOM     19  O   UNL     1       8.175  12.492  41.672  0.00  0.00    +0.000 OA
ENDBRANCH  14  17
BRANCH   5  20
ATOM     20  O   UNL     1      10.510  17.041  42.985  0.00  0.00    +0.000 OA
ATOM     21  H   UNL     1      11.404  17.462  43.007  0.00  0.00    +0.000 HD
ENDBRANCH   5  20
BRANCH   7  22
ATOM     22  O   UNL     1      15.375  17.633  44.856  0.00  0.00    +0.000 OA
ATOM     23  H   UNL     1      15.185  18.025  45.745  0.00  0.00    +0.000 HD
ENDBRANCH   7  22
TORSDOF 3
ENDMDL
MODEL 8
REMARK VINA RESULT:    -6.286      1.546      5.867
REMARK INTER + INTRA:          -7.118
REMARK INTER:                  -7.023
REMARK INTRA:                  -0.095
REMARK UNBOUND:                -0.096
REMARK  Name = opt44.pdb
REMARK  3 active torsions:
REMARK  status: ('A' for Active; 'I' for Inactive)
REMARK    1  A    between atoms: C_5  and  O_9
REMARK    2  A    between atoms: C_7  and  O_13
REMARK    3  A    between atoms: C_16  and  C_19
REMARK                            x       y       z     vdW  Elec       q    Type
REMARK                         _______ _______ _______ _____ _____    ______ ____
ROOT
ATOM      1  O   UNL     1      16.114  13.506  44.299  0.00  0.00    +0.000 OA
ATOM      2  C   UNL     1      15.158  14.254  44.414  0.00  0.00    +0.000 C 
ATOM      3  C   UNL     1      13.759  13.766  44.139  0.00  0.00    +0.000 A 
ATOM      4  C   UNL     1      15.366  15.686  44.837  0.00  0.00    +0.000 A 
ATOM      5  C   UNL     1      13.516  12.434  43.751  0.00  0.00    +0.000 A 
ATOM      6  C   UNL     1      12.674  14.643  44.266  0.00  0.00    +0.000 A 
ATOM      7  C   UNL     1      16.656  16.190  45.102  0.00  0.00    +0.000 A 
ATOM      8  C   UNL     1      14.265  16.541  44.976  0.00  0.00    +0.000 A 
ATOM      9  C   UNL     1      12.217  12.001  43.490  0.00  0.00    +0.000 A 
ATOM     10  C   UNL     1      12.875  16.066  44.693  0.00  0.00    +0.000 C 
ATOM     11  C   UNL     1      11.377  14.193  43.998  0.00  0.00    +0.000 A 
ATOM     12  C   UNL     1      16.831  17.511  45.508  0.00  0.00    +0.000 A 
ATOM     13  C   UNL     1      14.458  17.867  45.385  0.00  0.00    +0.000 A 
ATOM     14  C   UNL     1      11.137  12.877  43.606  0.00  0.00    +0.000 A 
ATOM     15  O   UNL     1      11.933  16.828  44.812  0.00  0.00    +0.000 OA
ATOM     16  C   UNL     1      15.734  18.349  45.653  0.00  0.00    +0.000 A 
ENDROOT
BRANCH  14  17
ATOM     17  C   UNL     1       9.737  12.411  43.320  0.00  0.00    +0.000 C 
ATOM     18  O   UNL     1       9.589  11.470  42.567  0.00  0.00    +0.000 OA
ATOM     19  O   UNL     1       8.817  12.997  43.853  0.00  0.00    +0.000 OA
ENDBRANCH  14  17
BRANCH   5  20
ATOM     20  O   UNL     1      14.533  11.524  43.625  0.00  0.00    +0.000 OA
ATOM     21  H   UNL     1      14.264  10.696  44.089  0.00  0.00    +0.000 HD
ENDBRANCH   5  20
BRANCH   7  22
ATOM     22  O   UNL     1      17.778  15.420  44.970  0.00  0.00    +0.000 OA
ATOM     23  H   UNL     1      17.490  14.496  44.757  0.00  0.00    +0.000 HD
ENDBRANCH   7  22
TORSDOF 3
ENDMDL
MODEL 9
REMARK VINA RESULT:    -6.082      1.585      5.975
REMARK INTER + INTRA:          -6.890
REMARK INTER:                  -6.793
REMARK INTRA:                  -0.096
REMARK UNBOUND:                -0.096
REMARK  Name = opt44.pdb
REMARK  3 active torsions:
REMARK  status: ('A' for Active; 'I' for Inactive)
REMARK    1  A    between atoms: C_5  and  O_9
REMARK    2  A    between atoms: C_7  and  O_13
REMARK    3  A    between atoms: C_16  and  C_19
REMARK                            x       y       z     vdW  Elec       q    Type
REMARK                         _______ _______ _______ _____ _____    ______ ____
ROOT
ATOM      1  O   UNL     1      12.929  11.853  43.343  0.00  0.00    +0.000 OA
ATOM      2  C   UNL     1      12.552  12.981  43.610  0.00  0.00    +0.000 C 
ATOM      3  C   UNL     1      11.093  13.348  43.520  0.00  0.00    +0.000 A 
ATOM      4  C   UNL     1      13.548  14.029  44.038  0.00  0.00    +0.000 A 
ATOM      5  C   UNL     1      10.126  12.399  43.134  0.00  0.00    +0.000 A 
ATOM      6  C   UNL     1      10.680  14.653  43.821  0.00  0.00    +0.000 A 
ATOM      7  C   UNL     1      14.924  13.734  44.134  0.00  0.00    +0.000 A 
ATOM      8  C   UNL     1      13.111  15.322  44.353  0.00  0.00    +0.000 A 
ATOM      9  C   UNL     1       8.782  12.758  43.045  0.00  0.00    +0.000 A 
ATOM     10  C   UNL     1      11.665  15.696  44.254  0.00  0.00    +0.000 C 
ATOM     11  C   UNL     1       9.328  14.997  43.724  0.00  0.00    +0.000 A 
ATOM     12  C   UNL     1      15.830  14.708  44.548  0.00  0.00    +0.000 A 
ATOM     13  C   UNL     1      14.034  16.290  44.767  0.00  0.00    +0.000 A 
ATOM     14  C   UNL     1       8.371  14.060  43.335  0.00  0.00    +0.000 A 
ATOM     15  O   UNL     1      11.308  16.828  44.524  0.00  0.00    +0.000 OA
ATOM     16  C   UNL     1      15.386  15.984  44.868  0.00  0.00    +0.000 A 
ENDROOT
BRANCH  14  17
ATOM     17  C   UNL     1       6.923  14.447  43.234  0.00  0.00    +0.000 C 
ATOM     18  O   UNL     1       6.149  13.651  42.742  0.00  0.00    +0.000 OA
ATOM     19  O   UNL     1       6.591  15.540  43.647  0.00  0.00    +0.000 OA
ENDBRANCH  14  17
BRANCH   5  20
ATOM     20  O   UNL     1      10.466  11.104  42.842  0.00  0.00    +0.000 OA
ATOM     21  H   UNL     1       9.660  10.644  42.505  0.00  0.00    +0.000 HD
ENDBRANCH   5  20
BRANCH   7  22
ATOM     22  O   UNL     1      15.425  12.500  43.827  0.00  0.00    +0.000 OA
ATOM     23  H   UNL     1      16.349  12.450  44.182  0.00  0.00    +0.000 HD
ENDBRANCH   7  22
TORSDOF 3
ENDMDL
MODEL 10
REMARK VINA RESULT:    -6.002      1.097      1.719
REMARK INTER + INTRA:          -6.800
REMARK INTER:                  -6.704
REMARK INTRA:                  -0.096
REMARK UNBOUND:                -0.096
REMARK  Name = opt44.pdb
REMARK  3 active torsions:
REMARK  status: ('A' for Active; 'I' for Inactive)
REMARK    1  A    between atoms: C_5  and  O_9
REMARK    2  A    between atoms: C_7  and  O_13
REMARK    3  A    between atoms: C_16  and  C_19
REMARK                            x       y       z     vdW  Elec       q    Type
REMARK                         _______ _______ _______ _____ _____    ______ ____
ROOT
ATOM      1  O   UNL     1       9.936  11.399  43.047  0.00  0.00    +0.000 OA
ATOM      2  C   UNL     1      10.058  12.593  43.261  0.00  0.00    +0.000 C 
ATOM      3  C   UNL     1      11.384  13.169  43.689  0.00  0.00    +0.000 A 
ATOM      4  C   UNL     1       8.875  13.514  43.099  0.00  0.00    +0.000 A 
ATOM      5  C   UNL     1      12.518  12.348  43.844  0.00  0.00    +0.000 A 
ATOM      6  C   UNL     1      11.501  14.542  43.941  0.00  0.00    +0.000 A 
ATOM      7  C   UNL     1       7.614  13.022  42.705  0.00  0.00    +0.000 A 
ATOM      8  C   UNL     1       9.020  14.887  43.339  0.00  0.00    +0.000 A 
ATOM      9  C   UNL     1      13.733  12.895  44.251  0.00  0.00    +0.000 A 
ATOM     10  C   UNL     1      10.330  15.463  43.775  0.00  0.00    +0.000 C 
ATOM     11  C   UNL     1      12.728  15.074  44.351  0.00  0.00    +0.000 A 
ATOM     12  C   UNL     1       6.535  13.888  42.542  0.00  0.00    +0.000 A 
ATOM     13  C   UNL     1       7.925  15.744  43.171  0.00  0.00    +0.000 A 
ATOM     14  C   UNL     1      13.849  14.261  44.512  0.00  0.00    +0.000 A 
ATOM     15  O   UNL     1      10.432  16.657  43.985  0.00  0.00    +0.000 OA
ATOM     16  C   UNL     1       6.689  15.248  42.771  0.00  0.00    +0.000 A 
ENDROOT
BRANCH  14  17
ATOM     17  C   UNL     1      15.159  14.849  44.955  0.00  0.00    +0.000 C 
ATOM     18  O   UNL     1      15.276  16.057  44.951  0.00  0.00    +0.000 OA
ATOM     19  O   UNL     1      16.043  14.089  45.297  0.00  0.00    +0.000 OA
ENDBRANCH  14  17
BRANCH   5  20
ATOM     20  O   UNL     1      12.470  11.001  43.597  0.00  0.00    +0.000 OA
ATOM     21  H   UNL     1      13.364  10.712  43.295  0.00  0.00    +0.000 HD
ENDBRANCH   5  20
BRANCH   7  22
ATOM     22  O   UNL     1       7.393  11.693  42.470  0.00  0.00    +0.000 OA
ATOM     23  H   UNL     1       8.264  11.276  42.246  0.00  0.00    +0.000 HD
ENDBRANCH   7  22
TORSDOF 3
ENDMDL
MODEL 11
REMARK VINA RESULT:    -5.922      1.477      6.747
REMARK INTER + INTRA:          -6.711
REMARK INTER:                  -6.618
REMARK INTRA:                  -0.093
REMARK UNBOUND:                -0.096
REMARK  Name = opt44.pdb
REMARK  3 active torsions:
REMARK  status: ('A' for Active; 'I' for Inactive)
REMARK    1  A    between atoms: C_5  and  O_9
REMARK    2  A    between atoms: C_7  and  O_13
REMARK    3  A    between atoms: C_16  and  C_19
REMARK                            x       y       z     vdW  Elec       q    Type
REMARK                         _______ _______ _______ _____ _____    ______ ____
ROOT
ATOM      1  O   UNL     1      13.922  17.599  44.864  0.00  0.00    +0.000 OA
ATOM      2  C   UNL     1      14.141  16.407  44.727  0.00  0.00    +0.000 C 
ATOM      3  C   UNL     1      13.022  15.448  44.411  0.00  0.00    +0.000 A 
ATOM      4  C   UNL     1      15.545  15.876  44.873  0.00  0.00    +0.000 A 
ATOM      5  C   UNL     1      11.697  15.901  44.256  0.00  0.00    +0.000 A 
ATOM      6  C   UNL     1      13.292  14.081  44.268  0.00  0.00    +0.000 A 
ATOM      7  C   UNL     1      16.623  16.734  45.171  0.00  0.00    +0.000 A 
ATOM      8  C   UNL     1      15.795  14.508  44.707  0.00  0.00    +0.000 A 
ATOM      9  C   UNL     1      10.672  14.999  43.975  0.00  0.00    +0.000 A 
ATOM     10  C   UNL     1      14.687  13.549  44.405  0.00  0.00    +0.000 C 
ATOM     11  C   UNL     1      12.252  13.189  43.988  0.00  0.00    +0.000 A 
ATOM     12  C   UNL     1      17.918  16.230  45.285  0.00  0.00    +0.000 A 
ATOM     13  C   UNL     1      17.102  14.017  44.826  0.00  0.00    +0.000 A 
ATOM     14  C   UNL     1      10.938  13.636  43.843  0.00  0.00    +0.000 A 
ATOM     15  O   UNL     1      14.925  12.363  44.273  0.00  0.00    +0.000 OA
ATOM     16  C   UNL     1      18.158  14.875  45.110  0.00  0.00    +0.000 A 
ENDROOT
BRANCH  14  17
ATOM     17  C   UNL     1       9.832  12.664  43.544  0.00  0.00    +0.000 C 
ATOM     18  O   UNL     1       8.731  12.891  44.001  0.00  0.00    +0.000 OA
ATOM     19  O   UNL     1      10.090  11.694  42.860  0.00  0.00    +0.000 OA
ENDBRANCH  14  17
BRANCH   5  20
ATOM     20  O   UNL     1      11.373  17.228  44.369  0.00  0.00    +0.000 OA
ATOM     21  H   UNL     1      11.950  17.627  45.064  0.00  0.00    +0.000 HD
ENDBRANCH   5  20
BRANCH   7  22
ATOM     22  O   UNL     1      16.453  18.076  45.364  0.00  0.00    +0.000 OA
ATOM     23  H   UNL     1      16.735  18.289  46.289  0.00  0.00    +0.000 HD
ENDBRANCH   7  22
TORSDOF 3
ENDMDL
MODEL 12
REMARK VINA RESULT:    -5.766      1.983      6.365
REMARK INTER + INTRA:          -6.537
REMARK INTER:                  -6.455
REMARK INTRA:                  -0.082
REMARK UNBOUND:                -0.096
REMARK  Name = opt44.pdb
REMARK  3 active torsions:
REMARK  status: ('A' for Active; 'I' for Inactive)
REMARK    1  A    between atoms: C_5  and  O_9
REMARK    2  A    between atoms: C_7  and  O_13
REMARK    3  A    between atoms: C_16  and  C_19
REMARK                            x       y       z     vdW  Elec       q    Type
REMARK                         _______ _______ _______ _____ _____    ______ ____
ROOT
ATOM      1  O   UNL     1      12.420  17.511  44.418  0.00  0.00    +0.000 OA
ATOM      2  C   UNL     1      13.196  16.586  44.250  0.00  0.00    +0.000 C 
ATOM      3  C   UNL     1      12.738  15.302  43.607  0.00  0.00    +0.000 A 
ATOM      4  C   UNL     1      14.633  16.717  44.687  0.00  0.00    +0.000 A 
ATOM      5  C   UNL     1      11.407  15.139  43.175  0.00  0.00    +0.000 A 
ATOM      6  C   UNL     1      13.642  14.246  43.432  0.00  0.00    +0.000 A 
ATOM      7  C   UNL     1      15.108  17.897  45.296  0.00  0.00    +0.000 A 
ATOM      8  C   UNL     1      15.525  15.655  44.485  0.00  0.00    +0.000 A 
ATOM      9  C   UNL     1      10.997  13.941  42.593  0.00  0.00    +0.000 A 
ATOM     10  C   UNL     1      15.073  14.374  43.858  0.00  0.00    +0.000 C 
ATOM     11  C   UNL     1      13.213  13.050  42.848  0.00  0.00    +0.000 A 
ATOM     12  C   UNL     1      16.443  18.010  45.677  0.00  0.00    +0.000 A 
ATOM     13  C   UNL     1      16.864  15.784  44.875  0.00  0.00    +0.000 A 
ATOM     14  C   UNL     1      11.894  12.885  42.427  0.00  0.00    +0.000 A 
ATOM     15  O   UNL     1      15.863  13.461  43.700  0.00  0.00    +0.000 OA
ATOM     16  C   UNL     1      17.322  16.956  45.465  0.00  0.00    +0.000 A 
ENDROOT
BRANCH  14  17
ATOM     17  C   UNL     1      11.450  11.592  41.804  0.00  0.00    +0.000 C 
ATOM     18  O   UNL     1      11.112  10.687  42.539  0.00  0.00    +0.000 OA
ATOM     19  O   UNL     1      11.450  11.510  40.592  0.00  0.00    +0.000 OA
ENDBRANCH  14  17
BRANCH   5  20
ATOM     20  O   UNL     1      10.481  16.141  43.305  0.00  0.00    +0.000 OA
ATOM     21  H   UNL     1      10.067  16.291  42.421  0.00  0.00    +0.000 HD
ENDBRANCH   5  20
BRANCH   7  22
ATOM     22  O   UNL     1      14.293  18.967  45.540  0.00  0.00    +0.000 OA
ATOM     23  H   UNL     1      13.736  18.751  46.331  0.00  0.00    +0.000 HD
ENDBRANCH   7  22
TORSDOF 3
ENDMDL
MODEL 13
REMARK VINA RESULT:    -5.742      1.777      4.204
REMARK INTER + INTRA:          -6.510
REMARK INTER:                  -6.415
REMARK INTRA:                  -0.095
REMARK UNBOUND:                -0.096
REMARK  Name = opt44.pdb
REMARK  3 active torsions:
REMARK  status: ('A' for Active; 'I' for Inactive)
REMARK    1  A    between atoms: C_5  and  O_9
REMARK    2  A    between atoms: C_7  and  O_13
REMARK    3  A    between atoms: C_16  and  C_19
REMARK                            x       y       z     vdW  Elec       q    Type
REMARK                         _______ _______ _______ _____ _____    ______ ____
ROOT
ATOM      1  O   UNL     1       9.205  16.654  43.644  0.00  0.00    +0.000 OA
ATOM      2  C   UNL     1       9.161  15.446  43.485  0.00  0.00    +0.000 C 
ATOM      3  C   UNL     1      10.387  14.595  43.696  0.00  0.00    +0.000 A 
ATOM      4  C   UNL     1       7.870  14.785  43.072  0.00  0.00    +0.000 A 
ATOM      5  C   UNL     1      11.612  15.168  44.091  0.00  0.00    +0.000 A 
ATOM      6  C   UNL     1      10.320  13.209  43.498  0.00  0.00    +0.000 A 
ATOM      7  C   UNL     1       6.698  15.540  42.859  0.00  0.00    +0.000 A 
ATOM      8  C   UNL     1       7.821  13.396  42.898  0.00  0.00    +0.000 A 
ATOM      9  C   UNL     1      12.739  14.368  44.272  0.00  0.00    +0.000 A 
ATOM     10  C   UNL     1       9.037  12.547  43.095  0.00  0.00    +0.000 C 
ATOM     11  C   UNL     1      11.461  12.422  43.682  0.00  0.00    +0.000 A 
ATOM     12  C   UNL     1       5.509  14.912  42.495  0.00  0.00    +0.000 A 
ATOM     13  C   UNL     1       6.617  12.781  42.531  0.00  0.00    +0.000 A 
ATOM     14  C   UNL     1      12.675  12.990  44.065  0.00  0.00    +0.000 A 
ATOM     15  O   UNL     1       8.974  11.342  42.930  0.00  0.00    +0.000 OA
ATOM     16  C   UNL     1       5.466  13.534  42.334  0.00  0.00    +0.000 A 
ENDROOT
BRANCH  14  17
ATOM     17  C   UNL     1      13.891  12.129  44.255  0.00  0.00    +0.000 C 
ATOM     18  O   UNL     1      14.984  12.654  44.178  0.00  0.00    +0.000 OA
ATOM     19  O   UNL     1      13.728  10.945  44.476  0.00  0.00    +0.000 OA
ENDBRANCH  14  17
BRANCH   5  20
ATOM     20  O   UNL     1      11.736  16.514  44.316  0.00  0.00    +0.000 OA
ATOM     21  H   UNL     1      11.316  16.991  43.561  0.00  0.00    +0.000 HD
ENDBRANCH   5  20
BRANCH   7  22
ATOM     22  O   UNL     1       6.675  16.900  42.993  0.00  0.00    +0.000 OA
ATOM     23  H   UNL     1       5.777  17.157  43.321  0.00  0.00    +0.000 HD
ENDBRANCH   7  22
TORSDOF 3
ENDMDL
MODEL 14
REMARK VINA RESULT:    -5.726      1.424      3.281
REMARK INTER + INTRA:          -6.491
REMARK INTER:                  -6.409
REMARK INTRA:                  -0.082
REMARK UNBOUND:                -0.096
REMARK  Name = opt44.pdb
REMARK  3 active torsions:
REMARK  status: ('A' for Active; 'I' for Inactive)
REMARK    1  A    between atoms: C_5  and  O_9
REMARK    2  A    between atoms: C_7  and  O_13
REMARK    3  A    between atoms: C_16  and  C_19
REMARK                            x       y       z     vdW  Elec       q    Type
REMARK                         _______ _______ _______ _____ _____    ______ ____
ROOT
ATOM      1  O   UNL     1      10.187  16.956  43.690  0.00  0.00    +0.000 OA
ATOM      2  C   UNL     1      10.441  15.764  43.699  0.00  0.00    +0.000 C 
ATOM      3  C   UNL     1      11.825  15.273  44.041  0.00  0.00    +0.000 A 
ATOM      4  C   UNL     1       9.367  14.759  43.368  0.00  0.00    +0.000 A 
ATOM      5  C   UNL     1      12.857  16.175  44.367  0.00  0.00    +0.000 A 
ATOM      6  C   UNL     1      12.101  13.900  44.037  0.00  0.00    +0.000 A 
ATOM      7  C   UNL     1       8.059  15.170  43.038  0.00  0.00    +0.000 A 
ATOM      8  C   UNL     1       9.660  13.389  43.387  0.00  0.00    +0.000 A 
ATOM      9  C   UNL     1      14.134  15.706  44.670  0.00  0.00    +0.000 A 
ATOM     10  C   UNL     1      11.035  12.897  43.715  0.00  0.00    +0.000 C 
ATOM     11  C   UNL     1      13.389  13.446  44.341  0.00  0.00    +0.000 A 
ATOM     12  C   UNL     1       7.072  14.229  42.751  0.00  0.00    +0.000 A 
ATOM     13  C   UNL     1       8.658  12.456  43.096  0.00  0.00    +0.000 A 
ATOM     14  C   UNL     1      14.413  14.339  44.656  0.00  0.00    +0.000 A 
ATOM     15  O   UNL     1      11.270  11.703  43.718  0.00  0.00    +0.000 OA
ATOM     16  C   UNL     1       7.369  12.873  42.783  0.00  0.00    +0.000 A 
ENDROOT
BRANCH  14  17
ATOM     17  C   UNL     1      15.790  13.833  44.978  0.00  0.00    +0.000 C 
ATOM     18  O   UNL     1      16.534  13.568  44.056  0.00  0.00    +0.000 OA
ATOM     19  O   UNL     1      16.098  13.711  46.147  0.00  0.00    +0.000 OA
ENDBRANCH  14  17
BRANCH   5  20
ATOM     20  O   UNL     1      12.644  17.528  44.404  0.00  0.00    +0.000 OA
ATOM     21  H   UNL     1      13.034  17.878  45.241  0.00  0.00    +0.000 HD
ENDBRANCH   5  20
BRANCH   7  22
ATOM     22  O   UNL     1       7.704  16.489  42.981  0.00  0.00    +0.000 OA
ATOM     23  H   UNL     1       8.100  16.944  43.767  0.00  0.00    +0.000 HD
ENDBRANCH   7  22
TORSDOF 3
ENDMDL
MODEL 15
REMARK VINA RESULT:    -5.714      1.187      1.578
REMARK INTER + INTRA:          -6.478
REMARK INTER:                  -6.382
REMARK INTRA:                  -0.096
REMARK UNBOUND:                -0.096
REMARK  Name = opt44.pdb
REMARK  3 active torsions:
REMARK  status: ('A' for Active; 'I' for Inactive)
REMARK    1  A    between atoms: C_5  and  O_9
REMARK    2  A    between atoms: C_7  and  O_13
REMARK    3  A    between atoms: C_16  and  C_19
REMARK                            x       y       z     vdW  Elec       q    Type
REMARK                         _______ _______ _______ _____ _____    ______ ____
ROOT
ATOM      1  O   UNL     1      12.754  12.003  43.334  0.00  0.00    +0.000 OA
ATOM      2  C   UNL     1      12.397  13.132  43.621  0.00  0.00    +0.000 C 
ATOM      3  C   UNL     1      13.395  14.164  44.081  0.00  0.00    +0.000 A 
ATOM      4  C   UNL     1      10.942  13.514  43.517  0.00  0.00    +0.000 A 
ATOM      5  C   UNL     1      14.766  13.856  44.184  0.00  0.00    +0.000 A 
ATOM      6  C   UNL     1      12.964  15.454  44.417  0.00  0.00    +0.000 A 
ATOM      7  C   UNL     1       9.971  12.582  43.095  0.00  0.00    +0.000 A 
ATOM      8  C   UNL     1      10.535  14.815  43.840  0.00  0.00    +0.000 A 
ATOM      9  C   UNL     1      15.674  14.818  44.622  0.00  0.00    +0.000 A 
ATOM     10  C   UNL     1      11.519  15.840  44.309  0.00  0.00    +0.000 C 
ATOM     11  C   UNL     1      13.888  16.407  44.857  0.00  0.00    +0.000 A 
ATOM     12  C   UNL     1       8.633  12.955  42.987  0.00  0.00    +0.000 A 
ATOM     13  C   UNL     1       9.186  15.173  43.727  0.00  0.00    +0.000 A 
ATOM     14  C   UNL     1      15.244  16.099  44.966  0.00  0.00    +0.000 A 
ATOM     15  O   UNL     1      11.143  16.962  44.591  0.00  0.00    +0.000 OA
ATOM     16  C   UNL     1       8.240  14.249  43.299  0.00  0.00    +0.000 A 
ENDROOT
BRANCH  14  17
ATOM     17  C   UNL     1      16.223  17.135  45.443  0.00  0.00    +0.000 C 
ATOM     18  O   UNL     1      15.785  18.178  45.884  0.00  0.00    +0.000 OA
ATOM     19  O   UNL     1      17.409  16.883  45.364  0.00  0.00    +0.000 OA
ENDBRANCH  14  17
BRANCH   5  20
ATOM     20  O   UNL     1      15.251  12.617  43.855  0.00  0.00    +0.000 OA
ATOM     21  H   UNL     1      16.234  12.678  43.796  0.00  0.00    +0.000 HD
ENDBRANCH   5  20
BRANCH   7  22
ATOM     22  O   UNL     1      10.291  11.291  42.780  0.00  0.00    +0.000 OA
ATOM     23  H   UNL     1      10.742  10.890  43.566  0.00  0.00    +0.000 HD
ENDBRANCH   7  22
TORSDOF 3
ENDMDL
MODEL 16
REMARK VINA RESULT:    -5.494      2.306      6.770
REMARK INTER + INTRA:          -6.233
REMARK INTER:                  -6.137
REMARK INTRA:                  -0.096
REMARK UNBOUND:                -0.096
REMARK  Name = opt44.pdb
REMARK  3 active torsions:
REMARK  status: ('A' for Active; 'I' for Inactive)
REMARK    1  A    between atoms: C_5  and  O_9
REMARK    2  A    between atoms: C_7  and  O_13
REMARK    3  A    between atoms: C_16  and  C_19
REMARK                            x       y       z     vdW  Elec       q    Type
REMARK                         _______ _______ _______ _____ _____    ______ ____
ROOT
ATOM      1  O   UNL     1      13.670  18.141  44.637  0.00  0.00    +0.000 OA
ATOM      2  C   UNL     1      14.552  17.309  44.762  0.00  0.00    +0.000 C 
ATOM      3  C   UNL     1      14.260  15.841  44.579  0.00  0.00    +0.000 A 
ATOM      4  C   UNL     1      15.956  17.741  45.104  0.00  0.00    +0.000 A 
ATOM      5  C   UNL     1      12.966  15.393  44.250  0.00  0.00    +0.000 A 
ATOM      6  C   UNL     1      15.284  14.899  44.738  0.00  0.00    +0.000 A 
ATOM      7  C   UNL     1      16.277  19.102  45.289  0.00  0.00    +0.000 A 
ATOM      8  C   UNL     1      16.969  16.783  45.240  0.00  0.00    +0.000 A 
ATOM      9  C   UNL     1      12.710  14.031  44.095  0.00  0.00    +0.000 A 
ATOM     10  C   UNL     1      16.683  15.324  45.071  0.00  0.00    +0.000 C 
ATOM     11  C   UNL     1      15.010  13.537  44.582  0.00  0.00    +0.000 A 
ATOM     12  C   UNL     1      17.582  19.487  45.587  0.00  0.00    +0.000 A 
ATOM     13  C   UNL     1      18.276  17.187  45.541  0.00  0.00    +0.000 A 
ATOM     14  C   UNL     1      13.727  13.091  44.263  0.00  0.00    +0.000 A 
ATOM     15  O   UNL     1      17.576  14.508  45.202  0.00  0.00    +0.000 OA
ATOM     16  C   UNL     1      18.582  18.532  45.710  0.00  0.00    +0.000 A 
ENDROOT
BRANCH  14  17
ATOM     17  C   UNL     1      13.450  11.624  44.101  0.00  0.00    +0.000 C 
ATOM     18  O   UNL     1      12.425  11.292  43.540  0.00  0.00    +0.000 OA
ATOM     19  O   UNL     1      14.262  10.834  44.540  0.00  0.00    +0.000 OA
ENDBRANCH  14  17
BRANCH   5  20
ATOM     20  O   UNL     1      11.927  16.267  44.066  0.00  0.00    +0.000 OA
ATOM     21  H   UNL     1      11.159  15.948  44.599  0.00  0.00    +0.000 HD
ENDBRANCH   5  20
BRANCH   7  22
ATOM     22  O   UNL     1      15.338  20.090  45.189  0.00  0.00    +0.000 OA
ATOM     23  H   UNL     1      15.767  20.875  44.764  0.00  0.00    +0.000 HD
ENDBRANCH   7  22
TORSDOF 3
ENDMDL
