MODEL 1
REMARK VINA RESULT:    -5.876      0.000      0.000
REMARK INTER + INTRA:          -8.090
REMARK INTER:                  -7.250
REMARK INTRA:                  -0.840
REMARK UNBOUND:                -0.840
REMARK  Name = opt25.pdb
REMARK  8 active torsions:
REMARK  status: ('A' for Active; 'I' for Inactive)
REMARK    1  A    between atoms: C_5  and  C_8
REMARK    2  A    between atoms: C_6  and  O_9
REMARK    3  A    between atoms: O_9  and  C_14
REMARK    4  A    between atoms: C_10  and  O_15
REMARK    5  A    between atoms: N_12  and  C_18
REMARK    6  A    between atoms: O_15  and  C_21
REMARK    7  A    between atoms: C_19  and  O_23
REMARK    8  A    between atoms: O_23  and  C_26
REMARK                            x       y       z     vdW  Elec       q    Type
REMARK                         _______ _______ _______ _____ _____    ______ ____
ROOT
ATOM      1  C   UNL     1       7.496  14.051  42.583  0.00  0.00    +0.000 C 
ATOM      2  N   UNL     1       6.989  13.184  43.702  0.00  0.00    +0.000 NA
ATOM      3  C   UNL     1       7.041  15.522  42.734  0.00  0.00    +0.000 A 
ATOM      4  C   UNL     1       7.063  13.792  45.044  0.00  0.00    +0.000 C 
ATOM      5  C   UNL     1       7.360  11.752  43.684  0.00  0.00    +0.000 C 
ATOM      6  C   UNL     1       7.226  16.446  41.693  0.00  0.00    +0.000 A 
ATOM      7  C   UNL     1       6.403  15.960  43.906  0.00  0.00    +0.000 A 
ATOM      8  C   UNL     1       6.140  15.015  45.067  0.00  0.00    +0.000 C 
ATOM      9  C   UNL     1       6.817  17.829  41.799  0.00  0.00    +0.000 A 
ATOM     10  C   UNL     1       5.961  17.276  44.023  0.00  0.00    +0.000 A 
ATOM     11  O   UNL     1       7.649  18.837  41.388  0.00  0.00    +0.000 OA
ATOM     12  C   UNL     1       6.145  18.248  42.983  0.00  0.00    +0.000 A 
ATOM     13  C   UNL     1       7.426  19.983  42.247  0.00  0.00    +0.000 C 
ATOM     14  O   UNL     1       6.553  19.513  43.306  0.00  0.00    +0.000 OA
ENDROOT
BRANCH   1  19
ATOM     15  O   UNL     1      11.220  11.335  41.683  0.00  0.00    +0.000 OA
ATOM     16  C   UNL     1      10.598  12.259  42.164  0.00  0.00    +0.000 C 
ATOM     17  O   UNL     1       9.372  12.624  41.760  0.00  0.00    +0.000 OA
ATOM     18  C   UNL     1      10.962  13.176  43.242  0.00  0.00    +0.000 A 
ATOM     19  C   UNL     1       9.029  13.927  42.299  0.00  0.00    +0.000 C 
ATOM     20  C   UNL     1      12.236  13.319  43.933  0.00  0.00    +0.000 A 
ATOM     21  C   UNL     1       9.986  14.201  43.440  0.00  0.00    +0.000 A 
ATOM     22  C   UNL     1      12.543  14.597  44.459  0.00  0.00    +0.000 A 
ATOM     23  C   UNL     1      10.338  15.460  43.897  0.00  0.00    +0.000 A 
ATOM     24  C   UNL     1      11.611  15.639  44.419  0.00  0.00    +0.000 A 
BRANCH  20  25
ATOM     25  O   UNL     1      13.144  12.294  44.163  0.00  0.00    +0.000 OA
ATOM     26  C   UNL     1      14.330  12.061  43.369  0.00  0.00    +0.000 C 
ENDBRANCH  20  25
BRANCH  22  27
ATOM     27  O   UNL     1      13.744  14.939  45.076  0.00  0.00    +0.000 OA
ATOM     28  C   UNL     1      14.844  15.656  44.469  0.00  0.00    +0.000 C 
ENDBRANCH  22  27
ENDBRANCH   1  19
BRANCH   6  29
ATOM     29  O   UNL     1       7.924  16.118  40.548  0.00  0.00    +0.000 OA
ATOM     30  C   UNL     1       7.259  15.991  39.277  0.00  0.00    +0.000 C 
ENDBRANCH   6  29
TORSDOF 4
ENDMDL
MODEL 2
REMARK VINA RESULT:    -5.509      4.586      9.241
REMARK INTER + INTRA:          -7.636
REMARK INTER:                  -6.839
REMARK INTRA:                  -0.798
REMARK UNBOUND:                -0.840
REMARK  Name = opt25.pdb
REMARK  8 active torsions:
REMARK  status: ('A' for Active; 'I' for Inactive)
REMARK    1  A    between atoms: C_5  and  C_8
REMARK    2  A    between atoms: C_6  and  O_9
REMARK    3  A    between atoms: O_9  and  C_14
REMARK    4  A    between atoms: C_10  and  O_15
REMARK    5  A    between atoms: N_12  and  C_18
REMARK    6  A    between atoms: O_15  and  C_21
REMARK    7  A    between atoms: C_19  and  O_23
REMARK    8  A    between atoms: O_23  and  C_26
REMARK                            x       y       z     vdW  Elec       q    Type
REMARK                         _______ _______ _______ _____ _____    ______ ____
ROOT
ATOM      1  C   UNL     1      17.059  16.557  43.736  0.00  0.00    +0.000 C 
ATOM      2  N   UNL     1      17.672  15.717  44.821  0.00  0.00    +0.000 NA
ATOM      3  C   UNL     1      17.925  16.575  42.454  0.00  0.00    +0.000 A 
ATOM      4  C   UNL     1      18.255  14.440  44.367  0.00  0.00    +0.000 C 
ATOM      5  C   UNL     1      16.941  15.606  46.101  0.00  0.00    +0.000 C 
ATOM      6  C   UNL     1      17.641  17.464  41.404  0.00  0.00    +0.000 A 
ATOM      7  C   UNL     1      19.034  15.725  42.324  0.00  0.00    +0.000 A 
ATOM      8  C   UNL     1      19.424  14.755  43.427  0.00  0.00    +0.000 C 
ATOM      9  C   UNL     1      18.425  17.508  40.190  0.00  0.00    +0.000 A 
ATOM     10  C   UNL     1      19.833  15.771  41.183  0.00  0.00    +0.000 A 
ATOM     11  O   UNL     1      17.814  17.569  38.965  0.00  0.00    +0.000 OA
ATOM     12  C   UNL     1      19.565  16.659  40.088  0.00  0.00    +0.000 A 
ATOM     13  C   UNL     1      18.637  16.847  38.015  0.00  0.00    +0.000 C 
ATOM     14  O   UNL     1      19.666  16.196  38.804  0.00  0.00    +0.000 OA
ENDROOT
BRANCH   1  19
ATOM     15  O   UNL     1      12.557  16.783  45.056  0.00  0.00    +0.000 OA
ATOM     16  C   UNL     1      13.556  16.305  44.561  0.00  0.00    +0.000 C 
ATOM     17  O   UNL     1      14.668  17.008  44.296  0.00  0.00    +0.000 OA
ATOM     18  C   UNL     1      13.832  14.933  44.139  0.00  0.00    +0.000 A 
ATOM     19  C   UNL     1      15.555  16.247  43.437  0.00  0.00    +0.000 C 
ATOM     20  C   UNL     1      12.925  13.796  44.067  0.00  0.00    +0.000 A 
ATOM     21  C   UNL     1      15.103  14.802  43.500  0.00  0.00    +0.000 A 
ATOM     22  C   UNL     1      13.214  12.801  43.102  0.00  0.00    +0.000 A 
ATOM     23  C   UNL     1      15.327  13.856  42.514  0.00  0.00    +0.000 A 
ATOM     24  C   UNL     1      14.384  12.853  42.338  0.00  0.00    +0.000 A 
BRANCH  20  25
ATOM     25  O   UNL     1      11.835  13.585  44.901  0.00  0.00    +0.000 OA
ATOM     26  C   UNL     1      10.469  13.916  44.560  0.00  0.00    +0.000 C 
ENDBRANCH  20  25
BRANCH  22  27
ATOM     27  O   UNL     1      12.416  11.691  42.837  0.00  0.00    +0.000 OA
ATOM     28  C   UNL     1      11.380  11.603  41.831  0.00  0.00    +0.000 C 
ENDBRANCH  22  27
ENDBRANCH   1  19
BRANCH   6  29
ATOM     29  O   UNL     1      16.518  18.266  41.415  0.00  0.00    +0.000 OA
ATOM     30  C   UNL     1      16.610  19.679  41.685  0.00  0.00    +0.000 C 
ENDBRANCH   6  29
TORSDOF 4
ENDMDL
MODEL 3
REMARK VINA RESULT:    -5.357      4.017      7.053
REMARK INTER + INTRA:          -7.449
REMARK INTER:                  -7.110
REMARK INTRA:                  -0.339
REMARK UNBOUND:                -0.840
REMARK  Name = opt25.pdb
REMARK  8 active torsions:
REMARK  status: ('A' for Active; 'I' for Inactive)
REMARK    1  A    between atoms: C_5  and  C_8
REMARK    2  A    between atoms: C_6  and  O_9
REMARK    3  A    between atoms: O_9  and  C_14
REMARK    4  A    between atoms: C_10  and  O_15
REMARK    5  A    between atoms: N_12  and  C_18
REMARK    6  A    between atoms: O_15  and  C_21
REMARK    7  A    between atoms: C_19  and  O_23
REMARK    8  A    between atoms: O_23  and  C_26
REMARK                            x       y       z     vdW  Elec       q    Type
REMARK                         _______ _______ _______ _____ _____    ______ ____
ROOT
ATOM      1  C   UNL     1      12.669  16.622  43.997  0.00  0.00    +0.000 C 
ATOM      2  N   UNL     1      12.468  17.890  43.215  0.00  0.00    +0.000 NA
ATOM      3  C   UNL     1      11.899  15.430  43.384  0.00  0.00    +0.000 A 
ATOM      4  C   UNL     1      12.505  17.729  41.749  0.00  0.00    +0.000 C 
ATOM      5  C   UNL     1      13.158  19.108  43.689  0.00  0.00    +0.000 C 
ATOM      6  C   UNL     1      11.781  14.213  44.076  0.00  0.00    +0.000 A 
ATOM      7  C   UNL     1      11.272  15.547  42.133  0.00  0.00    +0.000 A 
ATOM      8  C   UNL     1      11.328  16.839  41.335  0.00  0.00    +0.000 C 
ATOM      9  C   UNL     1      11.072  13.076  43.533  0.00  0.00    +0.000 A 
ATOM     10  C   UNL     1      10.547  14.482  41.600  0.00  0.00    +0.000 A 
ATOM     11  O   UNL     1      11.612  11.818  43.600  0.00  0.00    +0.000 OA
ATOM     12  C   UNL     1      10.417  13.222  42.276  0.00  0.00    +0.000 A 
ATOM     13  C   UNL     1      11.198  11.086  42.420  0.00  0.00    +0.000 C 
ATOM     14  O   UNL     1      10.545  12.060  41.566  0.00  0.00    +0.000 OA
ENDROOT
BRANCH   1  19
ATOM     15  O   UNL     1      16.842  17.929  45.713  0.00  0.00    +0.000 OA
ATOM     16  C   UNL     1      16.061  17.380  44.964  0.00  0.00    +0.000 C 
ATOM     17  O   UNL     1      14.756  17.222  45.231  0.00  0.00    +0.000 OA
ATOM     18  C   UNL     1      16.285  16.776  43.653  0.00  0.00    +0.000 A 
ATOM     19  C   UNL     1      14.162  16.273  44.309  0.00  0.00    +0.000 C 
ATOM     20  C   UNL     1      17.540  16.541  42.952  0.00  0.00    +0.000 A 
ATOM     21  C   UNL     1      15.116  16.133  43.140  0.00  0.00    +0.000 A 
ATOM     22  C   UNL     1      17.582  15.451  42.051  0.00  0.00    +0.000 A 
ATOM     23  C   UNL     1      15.199  15.029  42.310  0.00  0.00    +0.000 A 
ATOM     24  C   UNL     1      16.432  14.709  41.759  0.00  0.00    +0.000 A 
BRANCH  20  25
ATOM     25  O   UNL     1      18.678  17.331  43.059  0.00  0.00    +0.000 OA
ATOM     26  C   UNL     1      19.764  17.078  43.980  0.00  0.00    +0.000 C 
ENDBRANCH  20  25
BRANCH  22  27
ATOM     27  O   UNL     1      18.714  15.030  41.359  0.00  0.00    +0.000 OA
ATOM     28  C   UNL     1      18.816  14.823  39.930  0.00  0.00    +0.000 C 
ENDBRANCH  22  27
ENDBRANCH   1  19
BRANCH   6  29
ATOM     29  O   UNL     1      12.443  13.988  45.265  0.00  0.00    +0.000 OA
ATOM     30  C   UNL     1      13.663  13.221  45.310  0.00  0.00    +0.000 C 
ENDBRANCH   6  29
TORSDOF 4
ENDMDL
MODEL 4
REMARK VINA RESULT:    -5.342      3.008      7.324
REMARK INTER + INTRA:          -7.431
REMARK INTER:                  -7.076
REMARK INTRA:                  -0.355
REMARK UNBOUND:                -0.840
REMARK  Name = opt25.pdb
REMARK  8 active torsions:
REMARK  status: ('A' for Active; 'I' for Inactive)
REMARK    1  A    between atoms: C_5  and  C_8
REMARK    2  A    between atoms: C_6  and  O_9
REMARK    3  A    between atoms: O_9  and  C_14
REMARK    4  A    between atoms: C_10  and  O_15
REMARK    5  A    between atoms: N_12  and  C_18
REMARK    6  A    between atoms: O_15  and  C_21
REMARK    7  A    between atoms: C_19  and  O_23
REMARK    8  A    between atoms: O_23  and  C_26
REMARK                            x       y       z     vdW  Elec       q    Type
REMARK                         _______ _______ _______ _____ _____    ______ ____
ROOT
ATOM      1  C   UNL     1      14.238  14.663  44.725  0.00  0.00    +0.000 C 
ATOM      2  N   UNL     1      14.721  13.335  44.213  0.00  0.00    +0.000 NA
ATOM      3  C   UNL     1      15.194  15.818  44.343  0.00  0.00    +0.000 A 
ATOM      4  C   UNL     1      15.259  13.355  42.840  0.00  0.00    +0.000 C 
ATOM      5  C   UNL     1      13.893  12.144  44.502  0.00  0.00    +0.000 C 
ATOM      6  C   UNL     1      15.039  17.097  44.901  0.00  0.00    +0.000 A 
ATOM      7  C   UNL     1      16.258  15.604  43.453  0.00  0.00    +0.000 A 
ATOM      8  C   UNL     1      16.510  14.241  42.829  0.00  0.00    +0.000 C 
ATOM      9  C   UNL     1      15.911  18.202  44.565  0.00  0.00    +0.000 A 
ATOM     10  C   UNL     1      17.139  16.637  43.140  0.00  0.00    +0.000 A 
ATOM     11  O   UNL     1      15.395  19.441  44.291  0.00  0.00    +0.000 OA
ATOM     12  C   UNL     1      17.003  17.960  43.683  0.00  0.00    +0.000 A 
ATOM     13  C   UNL     1      16.240  20.072  43.298  0.00  0.00    +0.000 C 
ATOM     14  O   UNL     1      17.169  19.044  42.867  0.00  0.00    +0.000 OA
ENDROOT
BRANCH   1  19
ATOM     15  O   UNL     1       9.724  13.367  44.771  0.00  0.00    +0.000 OA
ATOM     16  C   UNL     1      10.738  13.880  44.344  0.00  0.00    +0.000 C 
ATOM     17  O   UNL     1      11.833  14.098  45.088  0.00  0.00    +0.000 OA
ATOM     18  C   UNL     1      11.049  14.372  43.005  0.00  0.00    +0.000 A 
ATOM     19  C   UNL     1      12.744  14.990  44.396  0.00  0.00    +0.000 C 
ATOM     20  C   UNL     1      10.171  14.512  41.851  0.00  0.00    +0.000 A 
ATOM     21  C   UNL     1      12.328  15.008  42.939  0.00  0.00    +0.000 A 
ATOM     22  C   UNL     1      10.491  15.527  40.917  0.00  0.00    +0.000 A 
ATOM     23  C   UNL     1      12.581  16.041  42.053  0.00  0.00    +0.000 A 
ATOM     24  C   UNL     1      11.664  16.279  41.039  0.00  0.00    +0.000 A 
BRANCH  20  25
ATOM     25  O   UNL     1       9.081  13.699  41.569  0.00  0.00    +0.000 OA
ATOM     26  C   UNL     1       7.730  13.961  42.013  0.00  0.00    +0.000 C 
ENDBRANCH  20  25
BRANCH  22  27
ATOM     27  O   UNL     1       9.723  15.858  39.804  0.00  0.00    +0.000 OA
ATOM     28  C   UNL     1       8.681  16.861  39.751  0.00  0.00    +0.000 C 
ENDBRANCH  22  27
ENDBRANCH   1  19
BRANCH   6  29
ATOM     29  O   UNL     1      13.967  17.411  45.711  0.00  0.00    +0.000 OA
ATOM     30  C   UNL     1      12.882  18.230  45.232  0.00  0.00    +0.000 C 
ENDBRANCH   6  29
TORSDOF 4
ENDMDL
MODEL 5
REMARK VINA RESULT:    -5.336      3.073      7.494
REMARK INTER + INTRA:          -7.424
REMARK INTER:                  -7.111
REMARK INTRA:                  -0.312
REMARK UNBOUND:                -0.840
REMARK  Name = opt25.pdb
REMARK  8 active torsions:
REMARK  status: ('A' for Active; 'I' for Inactive)
REMARK    1  A    between atoms: C_5  and  C_8
REMARK    2  A    between atoms: C_6  and  O_9
REMARK    3  A    between atoms: O_9  and  C_14
REMARK    4  A    between atoms: C_10  and  O_15
REMARK    5  A    between atoms: N_12  and  C_18
REMARK    6  A    between atoms: O_15  and  C_21
REMARK    7  A    between atoms: C_19  and  O_23
REMARK    8  A    between atoms: O_23  and  C_26
REMARK                            x       y       z     vdW  Elec       q    Type
REMARK                         _______ _______ _______ _____ _____    ______ ____
ROOT
ATOM      1  C   UNL     1      12.086  14.833  44.287  0.00  0.00    +0.000 C 
ATOM      2  N   UNL     1      11.431  13.481  44.325  0.00  0.00    +0.000 NA
ATOM      3  C   UNL     1      13.613  14.749  44.525  0.00  0.00    +0.000 A 
ATOM      4  C   UNL     1      12.176  12.408  43.639  0.00  0.00    +0.000 C 
ATOM      5  C   UNL     1       9.971  13.417  44.103  0.00  0.00    +0.000 C 
ATOM      6  C   UNL     1      14.375  15.909  44.739  0.00  0.00    +0.000 A 
ATOM      7  C   UNL     1      14.266  13.507  44.565  0.00  0.00    +0.000 A 
ATOM      8  C   UNL     1      13.507  12.205  44.372  0.00  0.00    +0.000 C 
ATOM      9  C   UNL     1      15.803  15.870  44.962  0.00  0.00    +0.000 A 
ATOM     10  C   UNL     1      15.634  13.433  44.817  0.00  0.00    +0.000 A 
ATOM     11  O   UNL     1      16.636  16.746  44.316  0.00  0.00    +0.000 OA
ATOM     12  C   UNL     1      16.445  14.599  45.028  0.00  0.00    +0.000 A 
ATOM     13  C   UNL     1      17.894  16.071  44.065  0.00  0.00    +0.000 C 
ATOM     14  O   UNL     1      17.672  14.684  44.431  0.00  0.00    +0.000 OA
ENDROOT
BRANCH   1  19
ATOM     15  O   UNL     1      13.497  17.472  40.666  0.00  0.00    +0.000 OA
ATOM     16  C   UNL     1      12.797  17.128  41.595  0.00  0.00    +0.000 C 
ATOM     17  O   UNL     1      12.876  15.925  42.184  0.00  0.00    +0.000 OA
ATOM     18  C   UNL     1      11.745  17.858  42.299  0.00  0.00    +0.000 A 
ATOM     19  C   UNL     1      11.724  15.703  43.038  0.00  0.00    +0.000 C 
ATOM     20  C   UNL     1      11.152  19.149  41.978  0.00  0.00    +0.000 A 
ATOM     21  C   UNL     1      11.082  17.054  43.277  0.00  0.00    +0.000 A 
ATOM     22  C   UNL     1       9.813  19.362  42.385  0.00  0.00    +0.000 A 
ATOM     23  C   UNL     1       9.751  17.255  43.601  0.00  0.00    +0.000 A 
ATOM     24  C   UNL     1       9.134  18.419  43.164  0.00  0.00    +0.000 A 
BRANCH  20  25
ATOM     25  O   UNL     1      11.809  20.201  41.355  0.00  0.00    +0.000 OA
ATOM     26  C   UNL     1      12.911  20.936  41.938  0.00  0.00    +0.000 C 
ENDBRANCH  20  25
BRANCH  22  27
ATOM     27  O   UNL     1       9.061  20.498  42.095  0.00  0.00    +0.000 OA
ATOM     28  C   UNL     1       8.635  21.507  43.041  0.00  0.00    +0.000 C 
ENDBRANCH  22  27
ENDBRANCH   1  19
BRANCH   6  29
ATOM     29  O   UNL     1      13.825  17.170  44.625  0.00  0.00    +0.000 OA
ATOM     30  C   UNL     1      13.703  18.038  45.768  0.00  0.00    +0.000 C 
ENDBRANCH   6  29
TORSDOF 4
ENDMDL
MODEL 6
REMARK VINA RESULT:    -5.306      2.787      6.428
REMARK INTER + INTRA:          -7.387
REMARK INTER:                  -6.494
REMARK INTRA:                  -0.892
REMARK UNBOUND:                -0.840
REMARK  Name = opt25.pdb
REMARK  8 active torsions:
REMARK  status: ('A' for Active; 'I' for Inactive)
REMARK    1  A    between atoms: C_5  and  C_8
REMARK    2  A    between atoms: C_6  and  O_9
REMARK    3  A    between atoms: O_9  and  C_14
REMARK    4  A    between atoms: C_10  and  O_15
REMARK    5  A    between atoms: N_12  and  C_18
REMARK    6  A    between atoms: O_15  and  C_21
REMARK    7  A    between atoms: C_19  and  O_23
REMARK    8  A    between atoms: O_23  and  C_26
REMARK                            x       y       z     vdW  Elec       q    Type
REMARK                         _______ _______ _______ _____ _____    ______ ____
ROOT
ATOM      1  C   UNL     1       9.745  16.032  43.020  0.00  0.00    +0.000 C 
ATOM      2  N   UNL     1       9.370  17.400  43.520  0.00  0.00    +0.000 NA
ATOM      3  C   UNL     1       8.731  14.951  43.465  0.00  0.00    +0.000 A 
ATOM      4  C   UNL     1       7.934  17.725  43.428  0.00  0.00    +0.000 C 
ATOM      5  C   UNL     1      10.253  18.530  43.158  0.00  0.00    +0.000 C 
ATOM      6  C   UNL     1       9.006  13.586  43.285  0.00  0.00    +0.000 A 
ATOM      7  C   UNL     1       7.525  15.310  44.087  0.00  0.00    +0.000 A 
ATOM      8  C   UNL     1       7.166  16.765  44.343  0.00  0.00    +0.000 C 
ATOM      9  C   UNL     1       8.082  12.548  43.684  0.00  0.00    +0.000 A 
ATOM     10  C   UNL     1       6.631  14.332  44.519  0.00  0.00    +0.000 A 
ATOM     11  O   UNL     1       7.811  11.495  42.850  0.00  0.00    +0.000 OA
ATOM     12  C   UNL     1       6.877  12.929  44.340  0.00  0.00    +0.000 A 
ATOM     13  C   UNL     1       6.432  11.100  43.057  0.00  0.00    +0.000 C 
ATOM     14  O   UNL     1       5.861  12.115  43.921  0.00  0.00    +0.000 OA
ENDROOT
BRANCH   1  19
ATOM     15  O   UNL     1      12.322  17.475  39.368  0.00  0.00    +0.000 OA
ATOM     16  C   UNL     1      11.329  17.115  39.966  0.00  0.00    +0.000 C 
ATOM     17  O   UNL     1      11.354  16.550  41.182  0.00  0.00    +0.000 OA
ATOM     18  C   UNL     1       9.922  17.185  39.577  0.00  0.00    +0.000 A 
ATOM     19  C   UNL     1      10.066  15.957  41.491  0.00  0.00    +0.000 C 
ATOM     20  C   UNL     1       9.341  17.574  38.299  0.00  0.00    +0.000 A 
ATOM     21  C   UNL     1       9.061  16.552  40.526  0.00  0.00    +0.000 A 
ATOM     22  C   UNL     1       8.092  17.002  37.958  0.00  0.00    +0.000 A 
ATOM     23  C   UNL     1       7.876  15.948  40.141  0.00  0.00    +0.000 A 
ATOM     24  C   UNL     1       7.395  16.194  38.863  0.00  0.00    +0.000 A 
BRANCH  20  25
ATOM     25  O   UNL     1       9.888  18.497  37.418  0.00  0.00    +0.000 OA
ATOM     26  C   UNL     1      10.738  18.153  36.299  0.00  0.00    +0.000 C 
ENDBRANCH  20  25
BRANCH  22  27
ATOM     27  O   UNL     1       7.430  17.194  36.749  0.00  0.00    +0.000 OA
ATOM     28  C   UNL     1       7.354  16.249  35.655  0.00  0.00    +0.000 C 
ENDBRANCH  22  27
ENDBRANCH   1  19
BRANCH   6  29
ATOM     29  O   UNL     1      10.125  13.155  42.601  0.00  0.00    +0.000 OA
ATOM     30  C   UNL     1      11.257  12.596  43.296  0.00  0.00    +0.000 C 
ENDBRANCH   6  29
TORSDOF 4
ENDMDL
MODEL 7
REMARK VINA RESULT:    -5.284      2.514      4.720
REMARK INTER + INTRA:          -7.359
REMARK INTER:                  -6.481
REMARK INTRA:                  -0.877
REMARK UNBOUND:                -0.840
REMARK  Name = opt25.pdb
REMARK  8 active torsions:
REMARK  status: ('A' for Active; 'I' for Inactive)
REMARK    1  A    between atoms: C_5  and  C_8
REMARK    2  A    between atoms: C_6  and  O_9
REMARK    3  A    between atoms: O_9  and  C_14
REMARK    4  A    between atoms: C_10  and  O_15
REMARK    5  A    between atoms: N_12  and  C_18
REMARK    6  A    between atoms: O_15  and  C_21
REMARK    7  A    between atoms: C_19  and  O_23
REMARK    8  A    between atoms: O_23  and  C_26
REMARK                            x       y       z     vdW  Elec       q    Type
REMARK                         _______ _______ _______ _____ _____    ______ ____
ROOT
ATOM      1  C   UNL     1       9.248  17.022  42.525  0.00  0.00    +0.000 C 
ATOM      2  N   UNL     1       9.872  17.679  41.325  0.00  0.00    +0.000 NA
ATOM      3  C   UNL     1       8.099  16.063  42.133  0.00  0.00    +0.000 A 
ATOM      4  C   UNL     1      10.084  16.789  40.168  0.00  0.00    +0.000 C 
ATOM      5  C   UNL     1      10.991  18.617  41.558  0.00  0.00    +0.000 C 
ATOM      6  C   UNL     1       7.251  15.516  43.110  0.00  0.00    +0.000 A 
ATOM      7  C   UNL     1       7.859  15.742  40.788  0.00  0.00    +0.000 A 
ATOM      8  C   UNL     1       8.713  16.316  39.670  0.00  0.00    +0.000 C 
ATOM      9  C   UNL     1       6.170  14.613  42.782  0.00  0.00    +0.000 A 
ATOM     10  C   UNL     1       6.800  14.908  40.436  0.00  0.00    +0.000 A 
ATOM     11  O   UNL     1       5.964  13.474  43.514  0.00  0.00    +0.000 OA
ATOM     12  C   UNL     1       5.922  14.322  41.410  0.00  0.00    +0.000 A 
ATOM     13  C   UNL     1       5.453  12.452  42.623  0.00  0.00    +0.000 C 
ATOM     14  O   UNL     1       5.559  13.009  41.288  0.00  0.00    +0.000 OA
ENDROOT
BRANCH   1  19
ATOM     15  O   UNL     1      12.908  17.472  45.433  0.00  0.00    +0.000 OA
ATOM     16  C   UNL     1      12.200  16.952  44.597  0.00  0.00    +0.000 C 
ATOM     17  O   UNL     1      10.951  17.357  44.320  0.00  0.00    +0.000 OA
ATOM     18  C   UNL     1      12.469  15.823  43.709  0.00  0.00    +0.000 A 
ATOM     19  C   UNL     1      10.264  16.364  43.515  0.00  0.00    +0.000 C 
ATOM     20  C   UNL     1      13.613  14.922  43.691  0.00  0.00    +0.000 A 
ATOM     21  C   UNL     1      11.325  15.449  42.938  0.00  0.00    +0.000 A 
ATOM     22  C   UNL     1      13.392  13.609  43.209  0.00  0.00    +0.000 A 
ATOM     23  C   UNL     1      11.114  14.140  42.540  0.00  0.00    +0.000 A 
ATOM     24  C   UNL     1      12.159  13.236  42.665  0.00  0.00    +0.000 A 
BRANCH  20  25
ATOM     25  O   UNL     1      14.908  15.263  44.058  0.00  0.00    +0.000 OA
ATOM     26  C   UNL     1      15.756  16.168  43.313  0.00  0.00    +0.000 C 
ENDBRANCH  20  25
BRANCH  22  27
ATOM     27  O   UNL     1      14.345  12.594  43.195  0.00  0.00    +0.000 OA
ATOM     28  C   UNL     1      14.593  11.639  44.255  0.00  0.00    +0.000 C 
ENDBRANCH  22  27
ENDBRANCH   1  19
BRANCH   6  29
ATOM     29  O   UNL     1       7.477  15.709  44.457  0.00  0.00    +0.000 OA
ATOM     30  C   UNL     1       6.583  16.505  45.259  0.00  0.00    +0.000 C 
ENDBRANCH   6  29
TORSDOF 4
ENDMDL
MODEL 8
REMARK VINA RESULT:    -5.240      3.931      8.911
REMARK INTER + INTRA:          -7.304
REMARK INTER:                  -6.457
REMARK INTRA:                  -0.848
REMARK UNBOUND:                -0.840
REMARK  Name = opt25.pdb
REMARK  8 active torsions:
REMARK  status: ('A' for Active; 'I' for Inactive)
REMARK    1  A    between atoms: C_5  and  C_8
REMARK    2  A    between atoms: C_6  and  O_9
REMARK    3  A    between atoms: O_9  and  C_14
REMARK    4  A    between atoms: C_10  and  O_15
REMARK    5  A    between atoms: N_12  and  C_18
REMARK    6  A    between atoms: O_15  and  C_21
REMARK    7  A    between atoms: C_19  and  O_23
REMARK    8  A    between atoms: O_23  and  C_26
REMARK                            x       y       z     vdW  Elec       q    Type
REMARK                         _______ _______ _______ _____ _____    ______ ____
ROOT
ATOM      1  C   UNL     1      15.604  17.908  43.282  0.00  0.00    +0.000 C 
ATOM      2  N   UNL     1      14.877  18.684  44.345  0.00  0.00    +0.000 NA
ATOM      3  C   UNL     1      16.926  17.298  43.807  0.00  0.00    +0.000 A 
ATOM      4  C   UNL     1      14.861  18.052  45.677  0.00  0.00    +0.000 C 
ATOM      5  C   UNL     1      13.591  19.314  43.978  0.00  0.00    +0.000 C 
ATOM      6  C   UNL     1      17.854  16.719  42.926  0.00  0.00    +0.000 A 
ATOM      7  C   UNL     1      17.243  17.339  45.174  0.00  0.00    +0.000 A 
ATOM      8  C   UNL     1      16.305  17.974  46.188  0.00  0.00    +0.000 C 
ATOM      9  C   UNL     1      19.097  16.137  43.380  0.00  0.00    +0.000 A 
ATOM     10  C   UNL     1      18.451  16.823  45.638  0.00  0.00    +0.000 A 
ATOM     11  O   UNL     1      19.516  14.923  42.902  0.00  0.00    +0.000 OA
ATOM     12  C   UNL     1      19.415  16.213  44.766  0.00  0.00    +0.000 A 
ATOM     13  C   UNL     1      20.232  14.244  43.963  0.00  0.00    +0.000 C 
ATOM     14  O   UNL     1      20.034  15.055  45.149  0.00  0.00    +0.000 OA
ENDROOT
BRANCH   1  19
ATOM     15  O   UNL     1      11.866  16.981  40.594  0.00  0.00    +0.000 OA
ATOM     16  C   UNL     1      12.687  16.804  41.470  0.00  0.00    +0.000 C 
ATOM     17  O   UNL     1      13.828  17.502  41.575  0.00  0.00    +0.000 OA
ATOM     18  C   UNL     1      12.682  15.861  42.586  0.00  0.00    +0.000 A 
ATOM     19  C   UNL     1      14.727  16.863  42.517  0.00  0.00    +0.000 C 
ATOM     20  C   UNL     1      11.754  14.773  42.864  0.00  0.00    +0.000 A 
ATOM     21  C   UNL     1      13.896  15.898  43.339  0.00  0.00    +0.000 A 
ATOM     22  C   UNL     1      12.257  13.665  43.588  0.00  0.00    +0.000 A 
ATOM     23  C   UNL     1      14.387  14.774  43.981  0.00  0.00    +0.000 A 
ATOM     24  C   UNL     1      13.553  13.673  44.113  0.00  0.00    +0.000 A 
BRANCH  20  25
ATOM     25  O   UNL     1      10.408  14.761  42.523  0.00  0.00    +0.000 OA
ATOM     26  C   UNL     1       9.386  15.529  43.200  0.00  0.00    +0.000 C 
ENDBRANCH  20  25
BRANCH  22  27
ATOM     27  O   UNL     1      11.540  12.506  43.873  0.00  0.00    +0.000 OA
ATOM     28  C   UNL     1      11.223  11.446  42.940  0.00  0.00    +0.000 C 
ENDBRANCH  22  27
ENDBRANCH   1  19
BRANCH   6  29
ATOM     29  O   UNL     1      17.577  16.559  41.583  0.00  0.00    +0.000 OA
ATOM     30  C   UNL     1      18.289  17.307  40.578  0.00  0.00    +0.000 C 
ENDBRANCH   6  29
TORSDOF 4
ENDMDL
MODEL 9
REMARK VINA RESULT:    -5.219      3.173      5.107
REMARK INTER + INTRA:          -7.279
REMARK INTER:                  -6.583
REMARK INTRA:                  -0.697
REMARK UNBOUND:                -0.840
REMARK  Name = opt25.pdb
REMARK  8 active torsions:
REMARK  status: ('A' for Active; 'I' for Inactive)
REMARK    1  A    between atoms: C_5  and  C_8
REMARK    2  A    between atoms: C_6  and  O_9
REMARK    3  A    between atoms: O_9  and  C_14
REMARK    4  A    between atoms: C_10  and  O_15
REMARK    5  A    between atoms: N_12  and  C_18
REMARK    6  A    between atoms: O_15  and  C_21
REMARK    7  A    between atoms: C_19  and  O_23
REMARK    8  A    between atoms: O_23  and  C_26
REMARK                            x       y       z     vdW  Elec       q    Type
REMARK                         _______ _______ _______ _____ _____    ______ ____
ROOT
ATOM      1  C   UNL     1      12.957  14.752  42.390  0.00  0.00    +0.000 C 
ATOM      2  N   UNL     1      12.952  13.462  43.162  0.00  0.00    +0.000 NA
ATOM      3  C   UNL     1      11.654  15.560  42.597  0.00  0.00    +0.000 A 
ATOM      4  C   UNL     1      12.414  13.558  44.532  0.00  0.00    +0.000 C 
ATOM      5  C   UNL     1      14.145  12.594  43.059  0.00  0.00    +0.000 C 
ATOM      6  C   UNL     1      11.368  16.684  41.805  0.00  0.00    +0.000 A 
ATOM      7  C   UNL     1      10.712  15.169  43.562  0.00  0.00    +0.000 A 
ATOM      8  C   UNL     1      10.935  13.948  44.439  0.00  0.00    +0.000 C 
ATOM      9  C   UNL     1      10.164  17.466  41.972  0.00  0.00    +0.000 A 
ATOM     10  C   UNL     1       9.523  15.878  43.721  0.00  0.00    +0.000 A 
ATOM     11  O   UNL     1      10.215  18.835  41.987  0.00  0.00    +0.000 OA
ATOM     12  C   UNL     1       9.205  17.038  42.936  0.00  0.00    +0.000 A 
ATOM     13  C   UNL     1       9.185  19.316  42.886  0.00  0.00    +0.000 C 
ATOM     14  O   UNL     1       8.660  18.135  43.545  0.00  0.00    +0.000 OA
ENDROOT
BRANCH   1  19
ATOM     15  O   UNL     1      17.639  15.112  42.302  0.00  0.00    +0.000 OA
ATOM     16  C   UNL     1      16.508  15.305  42.696  0.00  0.00    +0.000 C 
ATOM     17  O   UNL     1      15.409  15.003  41.989  0.00  0.00    +0.000 OA
ATOM     18  C   UNL     1      16.038  15.877  43.956  0.00  0.00    +0.000 A 
ATOM     19  C   UNL     1      14.240  15.626  42.580  0.00  0.00    +0.000 C 
ATOM     20  C   UNL     1      16.806  16.504  45.022  0.00  0.00    +0.000 A 
ATOM     21  C   UNL     1      14.618  16.032  43.990  0.00  0.00    +0.000 A 
ATOM     22  C   UNL     1      16.148  17.487  45.800  0.00  0.00    +0.000 A 
ATOM     23  C   UNL     1      14.015  17.046  44.714  0.00  0.00    +0.000 A 
ATOM     24  C   UNL     1      14.786  17.753  45.626  0.00  0.00    +0.000 A 
BRANCH  20  25
ATOM     25  O   UNL     1      18.111  16.178  45.369  0.00  0.00    +0.000 OA
ATOM     26  C   UNL     1      19.285  16.836  44.839  0.00  0.00    +0.000 C 
ENDBRANCH  20  25
BRANCH  22  27
ATOM     27  O   UNL     1      16.746  18.245  46.803  0.00  0.00    +0.000 OA
ATOM     28  C   UNL     1      17.367  19.542  46.639  0.00  0.00    +0.000 C 
ENDBRANCH  22  27
ENDBRANCH   1  19
BRANCH   6  29
ATOM     29  O   UNL     1      12.281  17.185  40.900  0.00  0.00    +0.000 OA
ATOM     30  C   UNL     1      11.886  17.553  39.564  0.00  0.00    +0.000 C 
ENDBRANCH   6  29
TORSDOF 4
ENDMDL
MODEL 10
REMARK VINA RESULT:    -5.014      2.413      6.824
REMARK INTER + INTRA:          -7.026
REMARK INTER:                  -6.510
REMARK INTRA:                  -0.516
REMARK UNBOUND:                -0.840
REMARK  Name = opt25.pdb
REMARK  8 active torsions:
REMARK  status: ('A' for Active; 'I' for Inactive)
REMARK    1  A    between atoms: C_5  and  C_8
REMARK    2  A    between atoms: C_6  and  O_9
REMARK    3  A    between atoms: O_9  and  C_14
REMARK    4  A    between atoms: C_10  and  O_15
REMARK    5  A    between atoms: N_12  and  C_18
REMARK    6  A    between atoms: O_15  and  C_21
REMARK    7  A    between atoms: C_19  and  O_23
REMARK    8  A    between atoms: O_23  and  C_26
REMARK                            x       y       z     vdW  Elec       q    Type
REMARK                         _______ _______ _______ _____ _____    ______ ____
ROOT
ATOM      1  C   UNL     1      10.368  14.301  43.734  0.00  0.00    +0.000 C 
ATOM      2  N   UNL     1       9.882  12.909  43.440  0.00  0.00    +0.000 NA
ATOM      3  C   UNL     1      11.886  14.454  43.480  0.00  0.00    +0.000 A 
ATOM      4  C   UNL     1      10.439  12.300  42.217  0.00  0.00    +0.000 C 
ATOM      5  C   UNL     1       8.444  12.627  43.634  0.00  0.00    +0.000 C 
ATOM      6  C   UNL     1      12.574  15.607  43.892  0.00  0.00    +0.000 A 
ATOM      7  C   UNL     1      12.618  13.430  42.858  0.00  0.00    +0.000 A 
ATOM      8  C   UNL     1      11.952  12.140  42.409  0.00  0.00    +0.000 C 
ATOM      9  C   UNL     1      13.991  15.788  43.669  0.00  0.00    +0.000 A 
ATOM     10  C   UNL     1      13.991  13.557  42.664  0.00  0.00    +0.000 A 
ATOM     11  O   UNL     1      14.478  16.978  43.197  0.00  0.00    +0.000 OA
ATOM     12  C   UNL     1      14.723  14.726  43.063  0.00  0.00    +0.000 A 
ATOM     13  C   UNL     1      15.630  16.696  42.364  0.00  0.00    +0.000 C 
ATOM     14  O   UNL     1      15.664  15.252  42.222  0.00  0.00    +0.000 OA
ENDROOT
BRANCH   1  19
ATOM     15  O   UNL     1       6.190  16.284  42.913  0.00  0.00    +0.000 OA
ATOM     16  C   UNL     1       7.322  15.917  42.674  0.00  0.00    +0.000 C 
ATOM     17  O   UNL     1       8.191  15.518  43.616  0.00  0.00    +0.000 OA
ATOM     18  C   UNL     1       8.024  15.805  41.398  0.00  0.00    +0.000 A 
ATOM     19  C   UNL     1       9.532  15.442  43.067  0.00  0.00    +0.000 C 
ATOM     20  C   UNL     1       7.599  16.244  40.076  0.00  0.00    +0.000 A 
ATOM     21  C   UNL     1       9.394  15.431  41.558  0.00  0.00    +0.000 A 
ATOM     22  C   UNL     1       8.617  16.593  39.155  0.00  0.00    +0.000 A 
ATOM     23  C   UNL     1      10.370  15.846  40.669  0.00  0.00    +0.000 A 
ATOM     24  C   UNL     1       9.968  16.409  39.465  0.00  0.00    +0.000 A 
BRANCH  20  25
ATOM     25  O   UNL     1       6.285  16.296  39.632  0.00  0.00    +0.000 OA
ATOM     26  C   UNL     1       5.451  17.477  39.685  0.00  0.00    +0.000 C 
ENDBRANCH  20  25
BRANCH  22  27
ATOM     27  O   UNL     1       8.397  17.108  37.880  0.00  0.00    +0.000 OA
ATOM     28  C   UNL     1       8.279  16.344  36.657  0.00  0.00    +0.000 C 
ENDBRANCH  22  27
ENDBRANCH   1  19
BRANCH   6  29
ATOM     29  O   UNL     1      11.913  16.694  44.427  0.00  0.00    +0.000 OA
ATOM     30  C   UNL     1      12.524  17.518  45.440  0.00  0.00    +0.000 C 
ENDBRANCH   6  29
TORSDOF 4
ENDMDL
MODEL 11
REMARK VINA RESULT:    -4.788      3.541      6.596
REMARK INTER + INTRA:          -6.747
REMARK INTER:                  -6.596
REMARK INTRA:                  -0.151
REMARK UNBOUND:                -0.840
REMARK  Name = opt25.pdb
REMARK  8 active torsions:
REMARK  status: ('A' for Active; 'I' for Inactive)
REMARK    1  A    between atoms: C_5  and  C_8
REMARK    2  A    between atoms: C_6  and  O_9
REMARK    3  A    between atoms: O_9  and  C_14
REMARK    4  A    between atoms: C_10  and  O_15
REMARK    5  A    between atoms: N_12  and  C_18
REMARK    6  A    between atoms: O_15  and  C_21
REMARK    7  A    between atoms: C_19  and  O_23
REMARK    8  A    between atoms: O_23  and  C_26
REMARK                            x       y       z     vdW  Elec       q    Type
REMARK                         _______ _______ _______ _____ _____    ______ ____
ROOT
ATOM      1  C   UNL     1      12.712  17.079  44.140  0.00  0.00    +0.000 C 
ATOM      2  N   UNL     1      11.935  18.363  44.052  0.00  0.00    +0.000 NA
ATOM      3  C   UNL     1      11.916  15.877  43.579  0.00  0.00    +0.000 A 
ATOM      4  C   UNL     1      11.195  18.558  42.791  0.00  0.00    +0.000 C 
ATOM      5  C   UNL     1      12.585  19.596  44.548  0.00  0.00    +0.000 C 
ATOM      6  C   UNL     1      12.372  14.561  43.761  0.00  0.00    +0.000 A 
ATOM      7  C   UNL     1      10.702  16.073  42.902  0.00  0.00    +0.000 A 
ATOM      8  C   UNL     1      10.127  17.463  42.689  0.00  0.00    +0.000 C 
ATOM      9  C   UNL     1      11.657  13.413  43.248  0.00  0.00    +0.000 A 
ATOM     10  C   UNL     1       9.969  14.985  42.430  0.00  0.00    +0.000 A 
ATOM     11  O   UNL     1      12.325  12.406  42.602  0.00  0.00    +0.000 OA
ATOM     12  C   UNL     1      10.413  13.629  42.589  0.00  0.00    +0.000 A 
ATOM     13  C   UNL     1      11.449  11.868  41.580  0.00  0.00    +0.000 C 
ATOM     14  O   UNL     1      10.303  12.757  41.541  0.00  0.00    +0.000 OA
ENDROOT
BRANCH   1  19
ATOM     15  O   UNL     1      16.121  15.162  41.540  0.00  0.00    +0.000 OA
ATOM     16  C   UNL     1      15.626  15.766  42.469  0.00  0.00    +0.000 C 
ATOM     17  O   UNL     1      14.363  16.218  42.477  0.00  0.00    +0.000 OA
ATOM     18  C   UNL     1      16.205  16.150  43.754  0.00  0.00    +0.000 A 
ATOM     19  C   UNL     1      14.167  17.151  43.570  0.00  0.00    +0.000 C 
ATOM     20  C   UNL     1      17.583  16.038  44.210  0.00  0.00    +0.000 A 
ATOM     21  C   UNL     1      15.317  16.952  44.536  0.00  0.00    +0.000 A 
ATOM     22  C   UNL     1      18.024  16.981  45.169  0.00  0.00    +0.000 A 
ATOM     23  C   UNL     1      15.788  17.909  45.418  0.00  0.00    +0.000 A 
ATOM     24  C   UNL     1      17.139  17.902  45.739  0.00  0.00    +0.000 A 
BRANCH  20  25
ATOM     25  O   UNL     1      18.479  15.051  43.820  0.00  0.00    +0.000 OA
ATOM     26  C   UNL     1      19.420  15.187  42.729  0.00  0.00    +0.000 C 
ENDBRANCH  20  25
BRANCH  22  27
ATOM     27  O   UNL     1      19.325  17.076  45.656  0.00  0.00    +0.000 OA
ATOM     28  C   UNL     1      20.365  17.949  45.154  0.00  0.00    +0.000 C 
ENDBRANCH  22  27
ENDBRANCH   1  19
BRANCH   6  29
ATOM     29  O   UNL     1      13.598  14.291  44.334  0.00  0.00    +0.000 OA
ATOM     30  C   UNL     1      13.703  13.510  45.540  0.00  0.00    +0.000 C 
ENDBRANCH   6  29
TORSDOF 4
ENDMDL
MODEL 12
REMARK VINA RESULT:    -4.771      2.734      6.955
REMARK INTER + INTRA:          -6.726
REMARK INTER:                  -6.604
REMARK INTRA:                  -0.122
REMARK UNBOUND:                -0.840
REMARK  Name = opt25.pdb
REMARK  8 active torsions:
REMARK  status: ('A' for Active; 'I' for Inactive)
REMARK    1  A    between atoms: C_5  and  C_8
REMARK    2  A    between atoms: C_6  and  O_9
REMARK    3  A    between atoms: O_9  and  C_14
REMARK    4  A    between atoms: C_10  and  O_15
REMARK    5  A    between atoms: N_12  and  C_18
REMARK    6  A    between atoms: O_15  and  C_21
REMARK    7  A    between atoms: C_19  and  O_23
REMARK    8  A    between atoms: O_23  and  C_26
REMARK                            x       y       z     vdW  Elec       q    Type
REMARK                         _______ _______ _______ _____ _____    ______ ____
ROOT
ATOM      1  C   UNL     1      13.052  14.085  43.590  0.00  0.00    +0.000 C 
ATOM      2  N   UNL     1      13.641  12.720  43.364  0.00  0.00    +0.000 NA
ATOM      3  C   UNL     1      14.070  15.214  43.303  0.00  0.00    +0.000 A 
ATOM      4  C   UNL     1      14.484  12.597  42.159  0.00  0.00    +0.000 C 
ATOM      5  C   UNL     1      12.769  11.548  43.594  0.00  0.00    +0.000 C 
ATOM      6  C   UNL     1      13.789  16.545  43.654  0.00  0.00    +0.000 A 
ATOM      7  C   UNL     1      15.312  14.929  42.714  0.00  0.00    +0.000 A 
ATOM      8  C   UNL     1      15.702  13.511  42.332  0.00  0.00    +0.000 C 
ATOM      9  C   UNL     1      14.714  17.627  43.400  0.00  0.00    +0.000 A 
ATOM     10  C   UNL     1      16.241  15.944  42.492  0.00  0.00    +0.000 A 
ATOM     11  O   UNL     1      14.275  18.811  42.869  0.00  0.00    +0.000 OA
ATOM     12  C   UNL     1      15.981  17.315  42.828  0.00  0.00    +0.000 A 
ATOM     13  C   UNL     1      15.328  19.347  42.029  0.00  0.00    +0.000 C 
ATOM     14  O   UNL     1      16.332  18.303  41.949  0.00  0.00    +0.000 OA
ENDROOT
BRANCH   1  19
ATOM     15  O   UNL     1      10.283  16.860  41.002  0.00  0.00    +0.000 OA
ATOM     16  C   UNL     1      10.574  16.068  41.874  0.00  0.00    +0.000 C 
ATOM     17  O   UNL     1      11.745  15.416  41.928  0.00  0.00    +0.000 OA
ATOM     18  C   UNL     1       9.805  15.623  43.033  0.00  0.00    +0.000 A 
ATOM     19  C   UNL     1      11.675  14.330  42.888  0.00  0.00    +0.000 C 
ATOM     20  C   UNL     1       8.417  15.902  43.376  0.00  0.00    +0.000 A 
ATOM     21  C   UNL     1      10.468  14.591  43.766  0.00  0.00    +0.000 A 
ATOM     22  C   UNL     1       7.735  14.929  44.145  0.00  0.00    +0.000 A 
ATOM     23  C   UNL     1       9.762  13.619  44.455  0.00  0.00    +0.000 A 
ATOM     24  C   UNL     1       8.401  13.809  44.652  0.00  0.00    +0.000 A 
BRANCH  20  25
ATOM     25  O   UNL     1       7.731  17.066  43.055  0.00  0.00    +0.000 OA
ATOM     26  C   UNL     1       6.911  17.231  41.875  0.00  0.00    +0.000 C 
ENDBRANCH  20  25
BRANCH  22  27
ATOM     27  O   UNL     1       6.388  14.989  44.496  0.00  0.00    +0.000 OA
ATOM     28  C   UNL     1       5.622  13.938  45.132  0.00  0.00    +0.000 C 
ENDBRANCH  22  27
ENDBRANCH   1  19
BRANCH   6  29
ATOM     29  O   UNL     1      12.558  16.920  44.152  0.00  0.00    +0.000 OA
ATOM     30  C   UNL     1      12.436  17.579  45.428  0.00  0.00    +0.000 C 
ENDBRANCH   6  29
TORSDOF 4
ENDMDL
MODEL 13
REMARK VINA RESULT:    -4.695      4.533      8.157
REMARK INTER + INTRA:          -6.633
REMARK INTER:                  -6.349
REMARK INTRA:                  -0.284
REMARK UNBOUND:                -0.840
REMARK  Name = opt25.pdb
REMARK  8 active torsions:
REMARK  status: ('A' for Active; 'I' for Inactive)
REMARK    1  A    between atoms: C_5  and  C_8
REMARK    2  A    between atoms: C_6  and  O_9
REMARK    3  A    between atoms: O_9  and  C_14
REMARK    4  A    between atoms: C_10  and  O_15
REMARK    5  A    between atoms: N_12  and  C_18
REMARK    6  A    between atoms: O_15  and  C_21
REMARK    7  A    between atoms: C_19  and  O_23
REMARK    8  A    between atoms: O_23  and  C_26
REMARK                            x       y       z     vdW  Elec       q    Type
REMARK                         _______ _______ _______ _____ _____    ______ ____
ROOT
ATOM      1  C   UNL     1      16.177  15.274  43.210  0.00  0.00    +0.000 C 
ATOM      2  N   UNL     1      17.003  14.312  44.018  0.00  0.00    +0.000 NA
ATOM      3  C   UNL     1      14.660  15.031  43.387  0.00  0.00    +0.000 A 
ATOM      4  C   UNL     1      16.502  14.055  45.382  0.00  0.00    +0.000 C 
ATOM      5  C   UNL     1      18.474  14.440  43.947  0.00  0.00    +0.000 C 
ATOM      6  C   UNL     1      13.725  15.677  42.561  0.00  0.00    +0.000 A 
ATOM      7  C   UNL     1      14.184  14.134  44.356  0.00  0.00    +0.000 A 
ATOM      8  C   UNL     1      15.133  13.375  45.269  0.00  0.00    +0.000 C 
ATOM      9  C   UNL     1      12.299  15.478  42.699  0.00  0.00    +0.000 A 
ATOM     10  C   UNL     1      12.819  13.890  44.487  0.00  0.00    +0.000 A 
ATOM     11  O   UNL     1      11.439  16.544  42.675  0.00  0.00    +0.000 OA
ATOM     12  C   UNL     1      11.836  14.542  43.668  0.00  0.00    +0.000 A 
ATOM     13  C   UNL     1      10.326  16.244  43.554  0.00  0.00    +0.000 C 
ATOM     14  O   UNL     1      10.690  15.020  44.242  0.00  0.00    +0.000 OA
ENDROOT
BRANCH   1  19
ATOM     15  O   UNL     1      19.204  18.774  42.407  0.00  0.00    +0.000 OA
ATOM     16  C   UNL     1      18.400  18.109  43.026  0.00  0.00    +0.000 C 
ATOM     17  O   UNL     1      17.619  17.173  42.466  0.00  0.00    +0.000 OA
ATOM     18  C   UNL     1      18.068  18.121  44.448  0.00  0.00    +0.000 A 
ATOM     19  C   UNL     1      16.566  16.779  43.384  0.00  0.00    +0.000 C 
ATOM     20  C   UNL     1      18.513  19.041  45.486  0.00  0.00    +0.000 A 
ATOM     21  C   UNL     1      16.981  17.249  44.764  0.00  0.00    +0.000 A 
ATOM     22  C   UNL     1      17.639  19.248  46.581  0.00  0.00    +0.000 A 
ATOM     23  C   UNL     1      16.110  17.521  45.805  0.00  0.00    +0.000 A 
ATOM     24  C   UNL     1      16.459  18.509  46.715  0.00  0.00    +0.000 A 
BRANCH  20  25
ATOM     25  O   UNL     1      19.741  19.688  45.513  0.00  0.00    +0.000 OA
ATOM     26  C   UNL     1      19.975  21.018  44.997  0.00  0.00    +0.000 C 
ENDBRANCH  20  25
BRANCH  22  27
ATOM     27  O   UNL     1      17.860  20.148  47.620  0.00  0.00    +0.000 OA
ATOM     28  C   UNL     1      18.506  19.857  48.882  0.00  0.00    +0.000 C 
ENDBRANCH  22  27
ENDBRANCH   1  19
BRANCH   6  29
ATOM     29  O   UNL     1      14.105  16.639  41.648  0.00  0.00    +0.000 OA
ATOM     30  C   UNL     1      13.852  18.038  41.886  0.00  0.00    +0.000 C 
ENDBRANCH   6  29
TORSDOF 4
ENDMDL
MODEL 14
REMARK VINA RESULT:    -4.661      1.347      1.499
REMARK INTER + INTRA:          -6.591
REMARK INTER:                  -5.787
REMARK INTRA:                  -0.804
REMARK UNBOUND:                -0.840
REMARK  Name = opt25.pdb
REMARK  8 active torsions:
REMARK  status: ('A' for Active; 'I' for Inactive)
REMARK    1  A    between atoms: C_5  and  C_8
REMARK    2  A    between atoms: C_6  and  O_9
REMARK    3  A    between atoms: O_9  and  C_14
REMARK    4  A    between atoms: C_10  and  O_15
REMARK    5  A    between atoms: N_12  and  C_18
REMARK    6  A    between atoms: O_15  and  C_21
REMARK    7  A    between atoms: C_19  and  O_23
REMARK    8  A    between atoms: O_23  and  C_26
REMARK                            x       y       z     vdW  Elec       q    Type
REMARK                         _______ _______ _______ _____ _____    ______ ____
ROOT
ATOM      1  C   UNL     1       8.571  14.757  42.134  0.00  0.00    +0.000 C 
ATOM      2  N   UNL     1       8.038  13.883  43.235  0.00  0.00    +0.000 NA
ATOM      3  C   UNL     1       7.930  16.165  42.145  0.00  0.00    +0.000 A 
ATOM      4  C   UNL     1       7.876  14.554  44.539  0.00  0.00    +0.000 C 
ATOM      5  C   UNL     1       8.575  12.510  43.345  0.00  0.00    +0.000 C 
ATOM      6  C   UNL     1       8.130  17.057  41.079  0.00  0.00    +0.000 A 
ATOM      7  C   UNL     1       7.107  16.571  43.207  0.00  0.00    +0.000 A 
ATOM      8  C   UNL     1       6.819  15.653  44.384  0.00  0.00    +0.000 C 
ATOM      9  C   UNL     1       7.551  18.382  41.056  0.00  0.00    +0.000 A 
ATOM     10  C   UNL     1       6.502  17.826  43.196  0.00  0.00    +0.000 A 
ATOM     11  O   UNL     1       8.301  19.467  40.686  0.00  0.00    +0.000 OA
ATOM     12  C   UNL     1       6.695  18.766  42.128  0.00  0.00    +0.000 A 
ATOM     13  C   UNL     1       7.841  20.613  41.444  0.00  0.00    +0.000 C 
ATOM     14  O   UNL     1       6.908  20.085  42.421  0.00  0.00    +0.000 OA
ENDROOT
BRANCH   1  19
ATOM     15  O   UNL     1      12.683  12.491  42.017  0.00  0.00    +0.000 OA
ATOM     16  C   UNL     1      11.898  13.371  42.299  0.00  0.00    +0.000 C 
ATOM     17  O   UNL     1      10.696  13.513  41.719  0.00  0.00    +0.000 OA
ATOM     18  C   UNL     1      12.009  14.453  43.275  0.00  0.00    +0.000 A 
ATOM     19  C   UNL     1      10.131  14.811  42.036  0.00  0.00    +0.000 C 
ATOM     20  C   UNL     1      13.159  14.853  44.074  0.00  0.00    +0.000 A 
ATOM     21  C   UNL     1      10.898  15.350  43.226  0.00  0.00    +0.000 A 
ATOM     22  C   UNL     1      13.240  16.215  44.451  0.00  0.00    +0.000 A 
ATOM     23  C   UNL     1      11.032  16.691  43.543  0.00  0.00    +0.000 A 
ATOM     24  C   UNL     1      12.199  17.106  44.170  0.00  0.00    +0.000 A 
BRANCH  20  25
ATOM     25  O   UNL     1      14.151  13.998  44.537  0.00  0.00    +0.000 OA
ATOM     26  C   UNL     1      15.377  13.709  43.826  0.00  0.00    +0.000 C 
ENDBRANCH  20  25
BRANCH  22  27
ATOM     27  O   UNL     1      14.303  16.791  45.142  0.00  0.00    +0.000 OA
ATOM     28  C   UNL     1      15.440  17.465  44.553  0.00  0.00    +0.000 C 
ENDBRANCH  22  27
ENDBRANCH   1  19
BRANCH   6  29
ATOM     29  O   UNL     1       8.996  16.769  40.044  0.00  0.00    +0.000 OA
ATOM     30  C   UNL     1       8.511  16.511  38.712  0.00  0.00    +0.000 C 
ENDBRANCH   6  29
TORSDOF 4
ENDMDL
MODEL 15
REMARK VINA RESULT:    -4.504      2.234      3.805
REMARK INTER + INTRA:          -6.397
REMARK INTER:                  -6.146
REMARK INTRA:                  -0.251
REMARK UNBOUND:                -0.840
REMARK  Name = opt25.pdb
REMARK  8 active torsions:
REMARK  status: ('A' for Active; 'I' for Inactive)
REMARK    1  A    between atoms: C_5  and  C_8
REMARK    2  A    between atoms: C_6  and  O_9
REMARK    3  A    between atoms: O_9  and  C_14
REMARK    4  A    between atoms: C_10  and  O_15
REMARK    5  A    between atoms: N_12  and  C_18
REMARK    6  A    between atoms: O_15  and  C_21
REMARK    7  A    between atoms: C_19  and  O_23
REMARK    8  A    between atoms: O_23  and  C_26
REMARK                            x       y       z     vdW  Elec       q    Type
REMARK                         _______ _______ _______ _____ _____    ______ ____
ROOT
ATOM      1  C   UNL     1      10.752  13.987  42.347  0.00  0.00    +0.000 C 
ATOM      2  N   UNL     1      10.124  12.632  42.522  0.00  0.00    +0.000 NA
ATOM      3  C   UNL     1       9.695  15.114  42.274  0.00  0.00    +0.000 A 
ATOM      4  C   UNL     1       9.000  12.585  43.477  0.00  0.00    +0.000 C 
ATOM      5  C   UNL     1      11.024  11.463  42.616  0.00  0.00    +0.000 C 
ATOM      6  C   UNL     1      10.058  16.420  41.902  0.00  0.00    +0.000 A 
ATOM      7  C   UNL     1       8.344  14.851  42.546  0.00  0.00    +0.000 A 
ATOM      8  C   UNL     1       7.868  13.459  42.927  0.00  0.00    +0.000 C 
ATOM      9  C   UNL     1       9.099  17.500  41.826  0.00  0.00    +0.000 A 
ATOM     10  C   UNL     1       7.390  15.861  42.442  0.00  0.00    +0.000 A 
ATOM     11  O   UNL     1       9.388  18.729  42.356  0.00  0.00    +0.000 OA
ATOM     12  C   UNL     1       7.727  17.208  42.077  0.00  0.00    +0.000 A 
ATOM     13  C   UNL     1       8.155  19.307  42.853  0.00  0.00    +0.000 C 
ATOM     14  O   UNL     1       7.163  18.252  42.756  0.00  0.00    +0.000 OA
ENDROOT
BRANCH   1  19
ATOM     15  O   UNL     1      12.731  16.980  45.378  0.00  0.00    +0.000 OA
ATOM     16  C   UNL     1      12.682  16.134  44.510  0.00  0.00    +0.000 C 
ATOM     17  O   UNL     1      11.574  15.444  44.202  0.00  0.00    +0.000 OA
ATOM     18  C   UNL     1      13.727  15.653  43.609  0.00  0.00    +0.000 A 
ATOM     19  C   UNL     1      11.903  14.311  43.356  0.00  0.00    +0.000 C 
ATOM     20  C   UNL     1      15.151  15.958  43.609  0.00  0.00    +0.000 A 
ATOM     21  C   UNL     1      13.287  14.563  42.795  0.00  0.00    +0.000 A 
ATOM     22  C   UNL     1      16.022  14.968  43.094  0.00  0.00    +0.000 A 
ATOM     23  C   UNL     1      14.161  13.580  42.364  0.00  0.00    +0.000 A 
ATOM     24  C   UNL     1      15.524  13.802  42.504  0.00  0.00    +0.000 A 
BRANCH  20  25
ATOM     25  O   UNL     1      15.714  17.158  44.023  0.00  0.00    +0.000 OA
ATOM     26  C   UNL     1      16.195  17.415  45.362  0.00  0.00    +0.000 C 
ENDBRANCH  20  25
BRANCH  22  27
ATOM     27  O   UNL     1      17.412  15.051  43.090  0.00  0.00    +0.000 OA
ATOM     28  C   UNL     1      18.305  14.501  44.087  0.00  0.00    +0.000 C 
ENDBRANCH  22  27
ENDBRANCH   1  19
BRANCH   6  29
ATOM     29  O   UNL     1      11.376  16.779  41.708  0.00  0.00    +0.000 OA
ATOM     30  C   UNL     1      11.854  17.198  40.415  0.00  0.00    +0.000 C 
ENDBRANCH   6  29
TORSDOF 4
ENDMDL
