MODEL 1
REMARK VINA RESULT:    -6.711      0.000      0.000
REMARK INTER + INTRA:          -8.681
REMARK INTER:                  -8.085
REMARK INTRA:                  -0.596
REMARK UNBOUND:                -0.596
REMARK  Name = opt56.pdb
REMARK  4 active torsions:
REMARK  status: ('A' for Active; 'I' for Inactive)
REMARK    1  A    between atoms: O_1  and  C_2
REMARK    2  A    between atoms: C_2  and  C_3
REMARK    3  A    between atoms: C_2  and  C_4
REMARK    4  A    between atoms: C_18  and  C_21
REMARK                            x       y       z     vdW  Elec       q    Type
REMARK                         _______ _______ _______ _____ _____    ______ ____
ROOT
ATOM      1  C   UNL A   1      13.883  12.939  43.353  0.00  0.00    +0.000 C 
ENDROOT
BRANCH   1   2
ATOM      2  C   UNL A   1      15.252  13.397  43.885  0.00  0.00    +0.000 A 
ATOM      3  C   UNL A   1      16.370  13.791  43.109  0.00  0.00    +0.000 A 
ATOM      4  C   UNL A   1      15.378  13.449  45.274  0.00  0.00    +0.000 A 
ATOM      5  C   UNL A   1      17.510  14.295  43.776  0.00  0.00    +0.000 A 
ATOM      6  C   UNL A   1      16.403  13.709  41.707  0.00  0.00    +0.000 A 
ATOM      7  C   UNL A   1      16.557  13.905  45.852  0.00  0.00    +0.000 A 
ATOM      8  N   UNL A   1      17.598  14.342  45.123  0.00  0.00    +0.000 NA
ATOM      9  C   UNL A   1      18.595  14.767  43.036  0.00  0.00    +0.000 A 
ATOM     10  C   UNL A   1      17.491  14.194  40.983  0.00  0.00    +0.000 A 
ATOM     11  C   UNL A   1      18.582  14.738  41.646  0.00  0.00    +0.000 A 
ENDBRANCH   1   2
BRANCH   1  12
ATOM     12  C   UNL A   1      12.807  14.064  43.469  0.00  0.00    +0.000 C 
ATOM     13  N   UNL A   1      11.983  14.158  42.215  0.00  0.00    +0.000 NA
ATOM     14  C   UNL A   1      11.854  13.948  44.707  0.00  0.00    +0.000 C 
ATOM     15  C   UNL A   1      11.047  12.998  42.056  0.00  0.00    +0.000 C 
ATOM     16  C   UNL A   1      11.171  15.407  42.251  0.00  0.00    +0.000 C 
ATOM     17  C   UNL A   1      10.375  14.059  44.254  0.00  0.00    +0.000 C 
ATOM     18  C   UNL A   1      10.114  12.864  43.298  0.00  0.00    +0.000 C 
ATOM     19  C   UNL A   1      10.208  15.389  43.470  0.00  0.00    +0.000 C 
BRANCH  18  20
ATOM     20  C   UNL A   1       8.651  12.758  42.912  0.00  0.00    +0.000 C 
ATOM     21  C   UNL A   1       7.677  12.551  43.788  0.00  0.00    +0.000 C 
ENDBRANCH  18  20
ENDBRANCH   1  12
BRANCH   1  22
ATOM     22  O   UNL A   1      13.452  11.699  43.921  0.00  0.00    +0.000 OA
ATOM     23  H   UNL A   1      12.678  11.389  43.417  0.00  0.00    +0.000 HD
ENDBRANCH   1  22
TORSDOF 4
ENDMDL
MODEL 2
REMARK VINA RESULT:    -6.500      2.183      6.807
REMARK INTER + INTRA:          -8.427
REMARK INTER:                  -7.654
REMARK INTRA:                  -0.773
REMARK UNBOUND:                -0.596
REMARK  Name = opt56.pdb
REMARK  4 active torsions:
REMARK  status: ('A' for Active; 'I' for Inactive)
REMARK    1  A    between atoms: O_1  and  C_2
REMARK    2  A    between atoms: C_2  and  C_3
REMARK    3  A    between atoms: C_2  and  C_4
REMARK    4  A    between atoms: C_18  and  C_21
REMARK                            x       y       z     vdW  Elec       q    Type
REMARK                         _______ _______ _______ _____ _____    ______ ____
ROOT
ATOM      1  C   UNL A   1      16.036  14.126  45.179  0.00  0.00    +0.000 C 
ENDROOT
BRANCH   1   2
ATOM      2  C   UNL A   1      14.739  13.396  44.791  0.00  0.00    +0.000 A 
ATOM      3  C   UNL A   1      13.466  13.986  44.595  0.00  0.00    +0.000 A 
ATOM      4  C   UNL A   1      14.852  12.019  44.590  0.00  0.00    +0.000 A 
ATOM      5  C   UNL A   1      12.411  13.172  44.124  0.00  0.00    +0.000 A 
ATOM      6  C   UNL A   1      13.198  15.343  44.841  0.00  0.00    +0.000 A 
ATOM      7  C   UNL A   1      13.749  11.281  44.182  0.00  0.00    +0.000 A 
ATOM      8  N   UNL A   1      12.554  11.842  43.930  0.00  0.00    +0.000 NA
ATOM      9  C   UNL A   1      11.167  13.741  43.844  0.00  0.00    +0.000 A 
ATOM     10  C   UNL A   1      11.954  15.896  44.547  0.00  0.00    +0.000 A 
ATOM     11  C   UNL A   1      10.941  15.099  44.033  0.00  0.00    +0.000 A 
ENDBRANCH   1   2
BRANCH   1  12
ATOM     12  C   UNL A   1      16.995  14.297  43.959  0.00  0.00    +0.000 C 
ATOM     13  N   UNL A   1      16.573  15.454  43.095  0.00  0.00    +0.000 NA
ATOM     14  C   UNL A   1      18.512  14.448  44.321  0.00  0.00    +0.000 C 
ATOM     15  C   UNL A   1      16.833  16.779  43.744  0.00  0.00    +0.000 C 
ATOM     16  C   UNL A   1      17.328  15.410  41.811  0.00  0.00    +0.000 C 
ATOM     17  C   UNL A   1      19.111  15.684  43.601  0.00  0.00    +0.000 C 
ATOM     18  C   UNL A   1      18.337  16.922  44.130  0.00  0.00    +0.000 C 
ATOM     19  C   UNL A   1      18.854  15.530  42.078  0.00  0.00    +0.000 C 
BRANCH  18  20
ATOM     20  C   UNL A   1      18.939  18.222  43.629  0.00  0.00    +0.000 C 
ATOM     21  C   UNL A   1      18.233  19.172  43.032  0.00  0.00    +0.000 C 
ENDBRANCH  18  20
ENDBRANCH   1  12
BRANCH   1  22
ATOM     22  O   UNL A   1      16.683  13.544  46.314  0.00  0.00    +0.000 OA
ATOM     23  H   UNL A   1      16.484  14.098  47.091  0.00  0.00    +0.000 HD
ENDBRANCH   1  22
TORSDOF 4
ENDMDL
MODEL 3
REMARK VINA RESULT:    -6.233      3.119      4.521
REMARK INTER + INTRA:          -8.104
REMARK INTER:                  -7.983
REMARK INTRA:                  -0.122
REMARK UNBOUND:                -0.596
REMARK  Name = opt56.pdb
REMARK  4 active torsions:
REMARK  status: ('A' for Active; 'I' for Inactive)
REMARK    1  A    between atoms: O_1  and  C_2
REMARK    2  A    between atoms: C_2  and  C_3
REMARK    3  A    between atoms: C_2  and  C_4
REMARK    4  A    between atoms: C_18  and  C_21
REMARK                            x       y       z     vdW  Elec       q    Type
REMARK                         _______ _______ _______ _____ _____    ______ ____
ROOT
ATOM      1  C   UNL A   1      10.269  14.763  42.172  0.00  0.00    +0.000 C 
ENDROOT
BRANCH   1   2
ATOM      2  C   UNL A   1      11.134  13.589  42.662  0.00  0.00    +0.000 A 
ATOM      3  C   UNL A   1      12.298  13.677  43.465  0.00  0.00    +0.000 A 
ATOM      4  C   UNL A   1      10.698  12.316  42.291  0.00  0.00    +0.000 A 
ATOM      5  C   UNL A   1      12.897  12.479  43.916  0.00  0.00    +0.000 A 
ATOM      6  C   UNL A   1      12.887  14.896  43.839  0.00  0.00    +0.000 A 
ATOM      7  C   UNL A   1      11.379  11.189  42.732  0.00  0.00    +0.000 A 
ATOM      8  N   UNL A   1      12.446  11.260  43.547  0.00  0.00    +0.000 NA
ATOM      9  C   UNL A   1      13.997  12.533  44.775  0.00  0.00    +0.000 A 
ATOM     10  C   UNL A   1      13.979  14.932  44.704  0.00  0.00    +0.000 A 
ATOM     11  C   UNL A   1      14.526  13.751  45.186  0.00  0.00    +0.000 A 
ENDBRANCH   1   2
BRANCH   1  12
ATOM     12  C   UNL A   1       8.992  14.952  43.051  0.00  0.00    +0.000 C 
ATOM     13  N   UNL A   1       7.742  14.709  42.250  0.00  0.00    +0.000 NA
ATOM     14  C   UNL A   1       8.947  14.087  44.356  0.00  0.00    +0.000 C 
ATOM     15  C   UNL A   1       7.546  13.261  41.920  0.00  0.00    +0.000 C 
ATOM     16  C   UNL A   1       6.560  15.170  43.031  0.00  0.00    +0.000 C 
ATOM     17  C   UNL A   1       7.596  13.332  44.449  0.00  0.00    +0.000 C 
ATOM     18  C   UNL A   1       7.528  12.393  43.215  0.00  0.00    +0.000 C 
ATOM     19  C   UNL A   1       6.451  14.377  44.364  0.00  0.00    +0.000 C 
BRANCH  18  20
ATOM     20  C   UNL A   1       6.326  11.469  43.273  0.00  0.00    +0.000 C 
ATOM     21  C   UNL A   1       6.420  10.156  43.428  0.00  0.00    +0.000 C 
ENDBRANCH  18  20
ENDBRANCH   1  12
BRANCH   1  22
ATOM     22  O   UNL A   1       9.974  14.691  40.774  0.00  0.00    +0.000 OA
ATOM     23  H   UNL A   1      10.760  14.340  40.318  0.00  0.00    +0.000 HD
ENDBRANCH   1  22
TORSDOF 4
ENDMDL
MODEL 4
REMARK VINA RESULT:    -6.124      2.839      6.419
REMARK INTER + INTRA:          -7.974
REMARK INTER:                  -7.188
REMARK INTRA:                  -0.785
REMARK UNBOUND:                -0.596
REMARK  Name = opt56.pdb
REMARK  4 active torsions:
REMARK  status: ('A' for Active; 'I' for Inactive)
REMARK    1  A    between atoms: O_1  and  C_2
REMARK    2  A    between atoms: C_2  and  C_3
REMARK    3  A    between atoms: C_2  and  C_4
REMARK    4  A    between atoms: C_18  and  C_21
REMARK                            x       y       z     vdW  Elec       q    Type
REMARK                         _______ _______ _______ _____ _____    ______ ____
ROOT
ATOM      1  C   UNL A   1      12.774  13.860  44.514  0.00  0.00    +0.000 C 
ENDROOT
BRANCH   1   2
ATOM      2  C   UNL A   1      11.886  13.213  43.438  0.00  0.00    +0.000 A 
ATOM      3  C   UNL A   1      10.470  13.194  43.412  0.00  0.00    +0.000 A 
ATOM      4  C   UNL A   1      12.560  12.611  42.374  0.00  0.00    +0.000 A 
ATOM      5  C   UNL A   1       9.823  12.652  42.278  0.00  0.00    +0.000 A 
ATOM      6  C   UNL A   1       9.673  13.691  44.457  0.00  0.00    +0.000 A 
ATOM      7  C   UNL A   1      11.846  12.049  41.323  0.00  0.00    +0.000 A 
ATOM      8  N   UNL A   1      10.504  12.085  41.259  0.00  0.00    +0.000 NA
ATOM      9  C   UNL A   1       8.430  12.694  42.187  0.00  0.00    +0.000 A 
ATOM     10  C   UNL A   1       8.285  13.734  44.346  0.00  0.00    +0.000 A 
ATOM     11  C   UNL A   1       7.662  13.249  43.204  0.00  0.00    +0.000 A 
ENDBRANCH   1   2
BRANCH   1  12
ATOM     12  C   UNL A   1      13.692  14.974  43.919  0.00  0.00    +0.000 C 
ATOM     13  N   UNL A   1      12.878  16.054  43.263  0.00  0.00    +0.000 NA
ATOM     14  C   UNL A   1      14.692  15.624  44.934  0.00  0.00    +0.000 C 
ATOM     15  C   UNL A   1      12.146  16.905  44.256  0.00  0.00    +0.000 C 
ATOM     16  C   UNL A   1      13.779  16.938  42.471  0.00  0.00    +0.000 C 
ATOM     17  C   UNL A   1      14.588  17.170  44.870  0.00  0.00    +0.000 C 
ATOM     18  C   UNL A   1      13.136  17.533  45.284  0.00  0.00    +0.000 C 
ATOM     19  C   UNL A   1      14.828  17.611  43.400  0.00  0.00    +0.000 C 
BRANCH  18  20
ATOM     20  C   UNL A   1      12.947  19.031  45.426  0.00  0.00    +0.000 C 
ATOM     21  C   UNL A   1      12.129  19.740  44.660  0.00  0.00    +0.000 C 
ENDBRANCH  18  20
ENDBRANCH   1  12
BRANCH   1  22
ATOM     22  O   UNL A   1      13.499  12.900  45.288  0.00  0.00    +0.000 OA
ATOM     23  H   UNL A   1      14.436  12.946  45.025  0.00  0.00    +0.000 HD
ENDBRANCH   1  22
TORSDOF 4
ENDMDL
MODEL 5
REMARK VINA RESULT:    -6.049      2.478      3.807
REMARK INTER + INTRA:          -7.884
REMARK INTER:                  -7.398
REMARK INTRA:                  -0.485
REMARK UNBOUND:                -0.596
REMARK  Name = opt56.pdb
REMARK  4 active torsions:
REMARK  status: ('A' for Active; 'I' for Inactive)
REMARK    1  A    between atoms: O_1  and  C_2
REMARK    2  A    between atoms: C_2  and  C_3
REMARK    3  A    between atoms: C_2  and  C_4
REMARK    4  A    between atoms: C_18  and  C_21
REMARK                            x       y       z     vdW  Elec       q    Type
REMARK                         _______ _______ _______ _____ _____    ______ ____
ROOT
ATOM      1  C   UNL A   1      16.331  13.851  45.060  0.00  0.00    +0.000 C 
ENDROOT
BRANCH   1   2
ATOM      2  C   UNL A   1      17.366  14.873  44.558  0.00  0.00    +0.000 A 
ATOM      3  C   UNL A   1      17.677  16.120  45.152  0.00  0.00    +0.000 A 
ATOM      4  C   UNL A   1      18.079  14.504  43.415  0.00  0.00    +0.000 A 
ATOM      5  C   UNL A   1      18.743  16.876  44.614  0.00  0.00    +0.000 A 
ATOM      6  C   UNL A   1      16.980  16.645  46.253  0.00  0.00    +0.000 A 
ATOM      7  C   UNL A   1      19.076  15.334  42.917  0.00  0.00    +0.000 A 
ATOM      8  N   UNL A   1      19.421  16.488  43.512  0.00  0.00    +0.000 NA
ATOM      9  C   UNL A   1      19.126  18.070  45.228  0.00  0.00    +0.000 A 
ATOM     10  C   UNL A   1      17.381  17.834  46.859  0.00  0.00    +0.000 A 
ATOM     11  C   UNL A   1      18.465  18.541  46.356  0.00  0.00    +0.000 A 
ENDBRANCH   1   2
BRANCH   1  12
ATOM     12  C   UNL A   1      14.873  14.398  44.953  0.00  0.00    +0.000 C 
ATOM     13  N   UNL A   1      14.594  14.936  43.577  0.00  0.00    +0.000 NA
ATOM     14  C   UNL A   1      13.750  13.381  45.348  0.00  0.00    +0.000 C 
ATOM     15  C   UNL A   1      14.478  13.851  42.550  0.00  0.00    +0.000 C 
ATOM     16  C   UNL A   1      13.313  15.696  43.595  0.00  0.00    +0.000 C 
ATOM     17  C   UNL A   1      12.668  13.323  44.239  0.00  0.00    +0.000 C 
ATOM     18  C   UNL A   1      13.379  12.822  42.953  0.00  0.00    +0.000 C 
ATOM     19  C   UNL A   1      12.138  14.764  44.004  0.00  0.00    +0.000 C 
BRANCH  18  20
ATOM     20  C   UNL A   1      12.394  12.559  41.829  0.00  0.00    +0.000 C 
ATOM     21  C   UNL A   1      11.383  11.707  41.927  0.00  0.00    +0.000 C 
ENDBRANCH  18  20
ENDBRANCH   1  12
BRANCH   1  22
ATOM     22  O   UNL A   1      16.638  13.342  46.361  0.00  0.00    +0.000 OA
ATOM     23  H   UNL A   1      16.634  12.368  46.312  0.00  0.00    +0.000 HD
ENDBRANCH   1  22
TORSDOF 4
ENDMDL
MODEL 6
REMARK VINA RESULT:    -6.023      1.903      6.624
REMARK INTER + INTRA:          -7.851
REMARK INTER:                  -7.141
REMARK INTRA:                  -0.710
REMARK UNBOUND:                -0.596
REMARK  Name = opt56.pdb
REMARK  4 active torsions:
REMARK  status: ('A' for Active; 'I' for Inactive)
REMARK    1  A    between atoms: O_1  and  C_2
REMARK    2  A    between atoms: C_2  and  C_3
REMARK    3  A    between atoms: C_2  and  C_4
REMARK    4  A    between atoms: C_18  and  C_21
REMARK                            x       y       z     vdW  Elec       q    Type
REMARK                         _______ _______ _______ _____ _____    ______ ____
ROOT
ATOM      1  C   UNL A   1      13.584  13.674  44.726  0.00  0.00    +0.000 C 
ENDROOT
BRANCH   1   2
ATOM      2  C   UNL A   1      12.534  13.593  43.605  0.00  0.00    +0.000 A 
ATOM      3  C   UNL A   1      11.537  14.556  43.312  0.00  0.00    +0.000 A 
ATOM      4  C   UNL A   1      12.603  12.463  42.787  0.00  0.00    +0.000 A 
ATOM      5  C   UNL A   1      10.732  14.366  42.165  0.00  0.00    +0.000 A 
ATOM      6  C   UNL A   1      11.308  15.695  44.102  0.00  0.00    +0.000 A 
ATOM      7  C   UNL A   1      11.735  12.326  41.711  0.00  0.00    +0.000 A 
ATOM      8  N   UNL A   1      10.829  13.265  41.387  0.00  0.00    +0.000 NA
ATOM      9  C   UNL A   1       9.797  15.337  41.805  0.00  0.00    +0.000 A 
ATOM     10  C   UNL A   1      10.377  16.659  43.723  0.00  0.00    +0.000 A 
ATOM     11  C   UNL A   1       9.630  16.489  42.565  0.00  0.00    +0.000 A 
ENDBRANCH   1   2
BRANCH   1  12
ATOM     12  C   UNL A   1      15.024  13.885  44.162  0.00  0.00    +0.000 C 
ATOM     13  N   UNL A   1      15.198  15.279  43.626  0.00  0.00    +0.000 NA
ATOM     14  C   UNL A   1      16.185  13.568  45.164  0.00  0.00    +0.000 C 
ATOM     15  C   UNL A   1      15.254  16.308  44.713  0.00  0.00    +0.000 C 
ATOM     16  C   UNL A   1      16.468  15.354  42.850  0.00  0.00    +0.000 C 
ATOM     17  C   UNL A   1      17.186  14.751  45.213  0.00  0.00    +0.000 C 
ATOM     18  C   UNL A   1      16.392  15.981  45.728  0.00  0.00    +0.000 C 
ATOM     19  C   UNL A   1      17.680  15.027  43.767  0.00  0.00    +0.000 C 
BRANCH  18  20
ATOM     20  C   UNL A   1      17.297  17.172  45.983  0.00  0.00    +0.000 C 
ATOM     21  C   UNL A   1      17.352  17.813  47.143  0.00  0.00    +0.000 C 
ENDBRANCH  18  20
ENDBRANCH   1  12
BRANCH   1  22
ATOM     22  O   UNL A   1      13.503  12.579  45.643  0.00  0.00    +0.000 OA
ATOM     23  H   UNL A   1      12.853  11.942  45.296  0.00  0.00    +0.000 HD
ENDBRANCH   1  22
TORSDOF 4
ENDMDL
MODEL 7
REMARK VINA RESULT:    -5.988      2.151      2.875
REMARK INTER + INTRA:          -7.810
REMARK INTER:                  -7.041
REMARK INTRA:                  -0.769
REMARK UNBOUND:                -0.596
REMARK  Name = opt56.pdb
REMARK  4 active torsions:
REMARK  status: ('A' for Active; 'I' for Inactive)
REMARK    1  A    between atoms: O_1  and  C_2
REMARK    2  A    between atoms: C_2  and  C_3
REMARK    3  A    between atoms: C_2  and  C_4
REMARK    4  A    between atoms: C_18  and  C_21
REMARK                            x       y       z     vdW  Elec       q    Type
REMARK                         _______ _______ _______ _____ _____    ______ ____
ROOT
ATOM      1  C   UNL A   1      16.159  14.040  45.038  0.00  0.00    +0.000 C 
ENDROOT
BRANCH   1   2
ATOM      2  C   UNL A   1      17.063  15.221  44.649  0.00  0.00    +0.000 A 
ATOM      3  C   UNL A   1      17.752  15.388  43.423  0.00  0.00    +0.000 A 
ATOM      4  C   UNL A   1      17.184  16.234  45.602  0.00  0.00    +0.000 A 
ATOM      5  C   UNL A   1      18.445  16.600  43.198  0.00  0.00    +0.000 A 
ATOM      6  C   UNL A   1      17.780  14.410  42.414  0.00  0.00    +0.000 A 
ATOM      7  C   UNL A   1      17.933  17.370  45.322  0.00  0.00    +0.000 A 
ATOM      8  N   UNL A   1      18.536  17.566  44.137  0.00  0.00    +0.000 NA
ATOM      9  C   UNL A   1      19.065  16.827  41.968  0.00  0.00    +0.000 A 
ATOM     10  C   UNL A   1      18.396  14.657  41.189  0.00  0.00    +0.000 A 
ATOM     11  C   UNL A   1      19.026  15.872  40.958  0.00  0.00    +0.000 A 
ENDBRANCH   1   2
BRANCH   1  12
ATOM     12  C   UNL A   1      14.657  14.458  45.121  0.00  0.00    +0.000 C 
ATOM     13  N   UNL A   1      14.232  15.201  43.884  0.00  0.00    +0.000 NA
ATOM     14  C   UNL A   1      13.654  13.286  45.391  0.00  0.00    +0.000 C 
ATOM     15  C   UNL A   1      14.127  14.307  42.686  0.00  0.00    +0.000 C 
ATOM     16  C   UNL A   1      12.898  15.822  44.118  0.00  0.00    +0.000 C 
ATOM     17  C   UNL A   1      12.499  13.323  44.356  0.00  0.00    +0.000 C 
ATOM     18  C   UNL A   1      13.149  13.124  42.960  0.00  0.00    +0.000 C 
ATOM     19  C   UNL A   1      11.838  14.727  44.420  0.00  0.00    +0.000 C 
BRANCH  18  20
ATOM     20  C   UNL A   1      12.107  12.973  41.868  0.00  0.00    +0.000 C 
ATOM     21  C   UNL A   1      11.350  11.893  41.725  0.00  0.00    +0.000 C 
ENDBRANCH  18  20
ENDBRANCH   1  12
BRANCH   1  22
ATOM     22  O   UNL A   1      16.609  13.357  46.212  0.00  0.00    +0.000 OA
ATOM     23  H   UNL A   1      17.568  13.507  46.298  0.00  0.00    +0.000 HD
ENDBRANCH   1  22
TORSDOF 4
ENDMDL
MODEL 8
REMARK VINA RESULT:    -5.923      2.559      3.954
REMARK INTER + INTRA:          -7.731
REMARK INTER:                  -7.050
REMARK INTRA:                  -0.681
REMARK UNBOUND:                -0.596
REMARK  Name = opt56.pdb
REMARK  4 active torsions:
REMARK  status: ('A' for Active; 'I' for Inactive)
REMARK    1  A    between atoms: O_1  and  C_2
REMARK    2  A    between atoms: C_2  and  C_3
REMARK    3  A    between atoms: C_2  and  C_4
REMARK    4  A    between atoms: C_18  and  C_21
REMARK                            x       y       z     vdW  Elec       q    Type
REMARK                         _______ _______ _______ _____ _____    ______ ____
ROOT
ATOM      1  C   UNL A   1      10.401  14.182  43.805  0.00  0.00    +0.000 C 
ENDROOT
BRANCH   1   2
ATOM      2  C   UNL A   1      11.687  14.924  44.206  0.00  0.00    +0.000 A 
ATOM      3  C   UNL A   1      12.956  14.343  44.448  0.00  0.00    +0.000 A 
ATOM      4  C   UNL A   1      11.581  16.313  44.310  0.00  0.00    +0.000 A 
ATOM      5  C   UNL A   1      14.054  15.199  44.693  0.00  0.00    +0.000 A 
ATOM      6  C   UNL A   1      13.180  12.956  44.456  0.00  0.00    +0.000 A 
ATOM      7  C   UNL A   1      12.700  17.078  44.611  0.00  0.00    +0.000 A 
ATOM      8  N   UNL A   1      13.921  16.541  44.779  0.00  0.00    +0.000 NA
ATOM      9  C   UNL A   1      15.332  14.660  44.854  0.00  0.00    +0.000 A 
ATOM     10  C   UNL A   1      14.463  12.436  44.610  0.00  0.00    +0.000 A 
ATOM     11  C   UNL A   1      15.544  13.287  44.794  0.00  0.00    +0.000 A 
ENDBRANCH   1   2
BRANCH   1  12
ATOM     12  C   UNL A   1       9.378  15.128  43.101  0.00  0.00    +0.000 C 
ATOM     13  N   UNL A   1       9.058  14.644  41.713  0.00  0.00    +0.000 NA
ATOM     14  C   UNL A   1       8.044  15.367  43.885  0.00  0.00    +0.000 C 
ATOM     15  C   UNL A   1       8.216  13.404  41.718  0.00  0.00    +0.000 C 
ATOM     16  C   UNL A   1       8.314  15.706  40.981  0.00  0.00    +0.000 C 
ATOM     17  C   UNL A   1       6.827  15.119  42.957  0.00  0.00    +0.000 C 
ATOM     18  C   UNL A   1       6.899  13.631  42.521  0.00  0.00    +0.000 C 
ATOM     19  C   UNL A   1       6.978  16.028  41.707  0.00  0.00    +0.000 C 
BRANCH  18  20
ATOM     20  C   UNL A   1       5.668  13.210  41.740  0.00  0.00    +0.000 C 
ATOM     21  C   UNL A   1       5.721  12.511  40.614  0.00  0.00    +0.000 C 
ENDBRANCH  18  20
ENDBRANCH   1  12
BRANCH   1  22
ATOM     22  O   UNL A   1       9.822  13.448  44.888  0.00  0.00    +0.000 OA
ATOM     23  H   UNL A   1      10.548  13.101  45.439  0.00  0.00    +0.000 HD
ENDBRANCH   1  22
TORSDOF 4
ENDMDL
MODEL 9
REMARK VINA RESULT:    -5.880      1.973      7.354
REMARK INTER + INTRA:          -7.680
REMARK INTER:                  -7.047
REMARK INTRA:                  -0.632
REMARK UNBOUND:                -0.596
REMARK  Name = opt56.pdb
REMARK  4 active torsions:
REMARK  status: ('A' for Active; 'I' for Inactive)
REMARK    1  A    between atoms: O_1  and  C_2
REMARK    2  A    between atoms: C_2  and  C_3
REMARK    3  A    between atoms: C_2  and  C_4
REMARK    4  A    between atoms: C_18  and  C_21
REMARK                            x       y       z     vdW  Elec       q    Type
REMARK                         _______ _______ _______ _____ _____    ______ ____
ROOT
ATOM      1  C   UNL A   1      11.329  13.333  43.304  0.00  0.00    +0.000 C 
ENDROOT
BRANCH   1   2
ATOM      2  C   UNL A   1      10.109  14.021  42.669  0.00  0.00    +0.000 A 
ATOM      3  C   UNL A   1       8.823  14.159  43.247  0.00  0.00    +0.000 A 
ATOM      4  C   UNL A   1      10.315  14.584  41.408  0.00  0.00    +0.000 A 
ATOM      5  C   UNL A   1       7.854  14.928  42.561  0.00  0.00    +0.000 A 
ATOM      6  C   UNL A   1       8.459  13.571  44.470  0.00  0.00    +0.000 A 
ATOM      7  C   UNL A   1       9.290  15.277  40.777  0.00  0.00    +0.000 A 
ATOM      8  N   UNL A   1       8.088  15.468  41.345  0.00  0.00    +0.000 NA
ATOM      9  C   UNL A   1       6.605  15.149  43.143  0.00  0.00    +0.000 A 
ATOM     10  C   UNL A   1       7.211  13.810  45.041  0.00  0.00    +0.000 A 
ATOM     11  C   UNL A   1       6.287  14.612  44.386  0.00  0.00    +0.000 A 
ENDBRANCH   1   2
BRANCH   1  12
ATOM     12  C   UNL A   1      12.667  13.802  42.651  0.00  0.00    +0.000 C 
ATOM     13  N   UNL A   1      13.311  14.896  43.457  0.00  0.00    +0.000 NA
ATOM     14  C   UNL A   1      13.714  12.666  42.390  0.00  0.00    +0.000 C 
ATOM     15  C   UNL A   1      13.882  14.395  44.749  0.00  0.00    +0.000 C 
ATOM     16  C   UNL A   1      14.418  15.504  42.667  0.00  0.00    +0.000 C 
ATOM     17  C   UNL A   1      15.096  13.073  42.965  0.00  0.00    +0.000 C 
ATOM     18  C   UNL A   1      14.905  13.247  44.496  0.00  0.00    +0.000 C 
ATOM     19  C   UNL A   1      15.498  14.436  42.340  0.00  0.00    +0.000 C 
BRANCH  18  20
ATOM     20  C   UNL A   1      16.224  13.482  45.207  0.00  0.00    +0.000 C 
ATOM     21  C   UNL A   1      16.578  14.651  45.723  0.00  0.00    +0.000 C 
ENDBRANCH  18  20
ENDBRANCH   1  12
BRANCH   1  22
ATOM     22  O   UNL A   1      11.204  11.909  43.349  0.00  0.00    +0.000 OA
ATOM     23  H   UNL A   1      12.100  11.528  43.377  0.00  0.00    +0.000 HD
ENDBRANCH   1  22
TORSDOF 4
ENDMDL
MODEL 10
REMARK VINA RESULT:    -5.793      2.658      3.860
REMARK INTER + INTRA:          -7.575
REMARK INTER:                  -6.818
REMARK INTRA:                  -0.756
REMARK UNBOUND:                -0.596
REMARK  Name = opt56.pdb
REMARK  4 active torsions:
REMARK  status: ('A' for Active; 'I' for Inactive)
REMARK    1  A    between atoms: O_1  and  C_2
REMARK    2  A    between atoms: C_2  and  C_3
REMARK    3  A    between atoms: C_2  and  C_4
REMARK    4  A    between atoms: C_18  and  C_21
REMARK                            x       y       z     vdW  Elec       q    Type
REMARK                         _______ _______ _______ _____ _____    ______ ____
ROOT
ATOM      1  C   UNL A   1      10.831  12.903  42.390  0.00  0.00    +0.000 C 
ENDROOT
BRANCH   1   2
ATOM      2  C   UNL A   1      12.172  12.892  43.144  0.00  0.00    +0.000 A 
ATOM      3  C   UNL A   1      12.921  14.023  43.550  0.00  0.00    +0.000 A 
ATOM      4  C   UNL A   1      12.673  11.631  43.476  0.00  0.00    +0.000 A 
ATOM      5  C   UNL A   1      14.075  13.820  44.340  0.00  0.00    +0.000 A 
ATOM      6  C   UNL A   1      12.572  15.342  43.211  0.00  0.00    +0.000 A 
ATOM      7  C   UNL A   1      13.848  11.518  44.207  0.00  0.00    +0.000 A 
ATOM      8  N   UNL A   1      14.530  12.587  44.653  0.00  0.00    +0.000 NA
ATOM      9  C   UNL A   1      14.788  14.919  44.824  0.00  0.00    +0.000 A 
ATOM     10  C   UNL A   1      13.288  16.427  43.710  0.00  0.00    +0.000 A 
ATOM     11  C   UNL A   1      14.389  16.218  44.530  0.00  0.00    +0.000 A 
ENDBRANCH   1   2
BRANCH   1  12
ATOM     12  C   UNL A   1       9.625  13.150  43.349  0.00  0.00    +0.000 C 
ATOM     13  N   UNL A   1       8.931  14.445  43.026  0.00  0.00    +0.000 NA
ATOM     14  C   UNL A   1       8.568  11.996  43.401  0.00  0.00    +0.000 C 
ATOM     15  C   UNL A   1       8.159  14.376  41.744  0.00  0.00    +0.000 C 
ATOM     16  C   UNL A   1       7.981  14.781  44.122  0.00  0.00    +0.000 C 
ATOM     17  C   UNL A   1       7.142  12.568  43.195  0.00  0.00    +0.000 C 
ATOM     18  C   UNL A   1       7.124  13.211  41.781  0.00  0.00    +0.000 C 
ATOM     19  C   UNL A   1       6.903  13.670  44.263  0.00  0.00    +0.000 C 
BRANCH  18  20
ATOM     20  C   UNL A   1       5.731  13.664  41.384  0.00  0.00    +0.000 C 
ATOM     21  C   UNL A   1       5.457  14.884  40.945  0.00  0.00    +0.000 C 
ENDBRANCH  18  20
ENDBRANCH   1  12
BRANCH   1  22
ATOM     22  O   UNL A   1      10.651  11.752  41.559  0.00  0.00    +0.000 OA
ATOM     23  H   UNL A   1      10.588  10.970  42.136  0.00  0.00    +0.000 HD
ENDBRANCH   1  22
TORSDOF 4
ENDMDL
MODEL 11
REMARK VINA RESULT:    -5.718      2.270      3.383
REMARK INTER + INTRA:          -7.484
REMARK INTER:                  -6.894
REMARK INTRA:                  -0.590
REMARK UNBOUND:                -0.596
REMARK  Name = opt56.pdb
REMARK  4 active torsions:
REMARK  status: ('A' for Active; 'I' for Inactive)
REMARK    1  A    between atoms: O_1  and  C_2
REMARK    2  A    between atoms: C_2  and  C_3
REMARK    3  A    between atoms: C_2  and  C_4
REMARK    4  A    between atoms: C_18  and  C_21
REMARK                            x       y       z     vdW  Elec       q    Type
REMARK                         _______ _______ _______ _____ _____    ______ ____
ROOT
ATOM      1  C   UNL A   1      11.986  14.510  43.264  0.00  0.00    +0.000 C 
ENDROOT
BRANCH   1   2
ATOM      2  C   UNL A   1      13.266  13.784  43.713  0.00  0.00    +0.000 A 
ATOM      3  C   UNL A   1      14.425  14.382  44.264  0.00  0.00    +0.000 A 
ATOM      4  C   UNL A   1      13.255  12.394  43.580  0.00  0.00    +0.000 A 
ATOM      5  C   UNL A   1      15.462  13.541  44.728  0.00  0.00    +0.000 A 
ATOM      6  C   UNL A   1      14.598  15.772  44.376  0.00  0.00    +0.000 A 
ATOM      7  C   UNL A   1      14.342  11.644  44.011  0.00  0.00    +0.000 A 
ATOM      8  N   UNL A   1      15.419  12.197  44.594  0.00  0.00    +0.000 NA
ATOM      9  C   UNL A   1      16.581  14.097  45.350  0.00  0.00    +0.000 A 
ATOM     10  C   UNL A   1      15.717  16.310  45.009  0.00  0.00    +0.000 A 
ATOM     11  C   UNL A   1      16.703  15.473  45.510  0.00  0.00    +0.000 A 
ENDBRANCH   1   2
BRANCH   1  12
ATOM     12  C   UNL A   1      10.757  13.549  43.217  0.00  0.00    +0.000 C 
ATOM     13  N   UNL A   1       9.595  14.114  43.986  0.00  0.00    +0.000 NA
ATOM     14  C   UNL A   1      10.280  13.149  41.780  0.00  0.00    +0.000 C 
ATOM     15  C   UNL A   1       8.964  15.283  43.293  0.00  0.00    +0.000 C 
ATOM     16  C   UNL A   1       8.557  13.059  44.156  0.00  0.00    +0.000 C 
ATOM     17  C   UNL A   1       8.753  13.377  41.642  0.00  0.00    +0.000 C 
ATOM     18  C   UNL A   1       8.511  14.896  41.853  0.00  0.00    +0.000 C 
ATOM     19  C   UNL A   1       8.041  12.582  42.770  0.00  0.00    +0.000 C 
BRANCH  18  20
ATOM     20  C   UNL A   1       7.071  15.283  41.577  0.00  0.00    +0.000 C 
ATOM     21  C   UNL A   1       6.471  15.083  40.411  0.00  0.00    +0.000 C 
ENDBRANCH  18  20
ENDBRANCH   1  12
BRANCH   1  22
ATOM     22  O   UNL A   1      12.160  15.247  42.051  0.00  0.00    +0.000 OA
ATOM     23  H   UNL A   1      13.075  15.581  42.030  0.00  0.00    +0.000 HD
ENDBRANCH   1  22
TORSDOF 4
ENDMDL
MODEL 12
REMARK VINA RESULT:    -5.710      2.153      7.293
REMARK INTER + INTRA:          -7.475
REMARK INTER:                  -7.127
REMARK INTRA:                  -0.348
REMARK UNBOUND:                -0.596
REMARK  Name = opt56.pdb
REMARK  4 active torsions:
REMARK  status: ('A' for Active; 'I' for Inactive)
REMARK    1  A    between atoms: O_1  and  C_2
REMARK    2  A    between atoms: C_2  and  C_3
REMARK    3  A    between atoms: C_2  and  C_4
REMARK    4  A    between atoms: C_18  and  C_21
REMARK                            x       y       z     vdW  Elec       q    Type
REMARK                         _______ _______ _______ _____ _____    ______ ____
ROOT
ATOM      1  C   UNL A   1      11.006  13.514  42.550  0.00  0.00    +0.000 C 
ENDROOT
BRANCH   1   2
ATOM      2  C   UNL A   1       9.571  13.495  43.102  0.00  0.00    +0.000 A 
ATOM      3  C   UNL A   1       8.806  14.617  43.504  0.00  0.00    +0.000 A 
ATOM      4  C   UNL A   1       8.968  12.238  43.185  0.00  0.00    +0.000 A 
ATOM      5  C   UNL A   1       7.458  14.416  43.878  0.00  0.00    +0.000 A 
ATOM      6  C   UNL A   1       9.319  15.924  43.548  0.00  0.00    +0.000 A 
ATOM      7  C   UNL A   1       7.653  12.121  43.618  0.00  0.00    +0.000 A 
ATOM      8  N   UNL A   1       6.899  13.187  43.939  0.00  0.00    +0.000 NA
ATOM      9  C   UNL A   1       6.655  15.512  44.200  0.00  0.00    +0.000 A 
ATOM     10  C   UNL A   1       8.502  17.008  43.863  0.00  0.00    +0.000 A 
ATOM     11  C   UNL A   1       7.164  16.805  44.175  0.00  0.00    +0.000 A 
ENDBRANCH   1   2
BRANCH   1  12
ATOM     12  C   UNL A   1      12.070  13.379  43.684  0.00  0.00    +0.000 C 
ATOM     13  N   UNL A   1      13.131  12.378  43.316  0.00  0.00    +0.000 NA
ATOM     14  C   UNL A   1      12.751  14.719  44.121  0.00  0.00    +0.000 C 
ATOM     15  C   UNL A   1      14.045  12.882  42.242  0.00  0.00    +0.000 C 
ATOM     16  C   UNL A   1      13.954  12.070  44.519  0.00  0.00    +0.000 C 
ATOM     17  C   UNL A   1      14.294  14.557  44.123  0.00  0.00    +0.000 C 
ATOM     18  C   UNL A   1      14.706  14.230  42.662  0.00  0.00    +0.000 C 
ATOM     19  C   UNL A   1      14.653  13.356  45.039  0.00  0.00    +0.000 C 
BRANCH  18  20
ATOM     20  C   UNL A   1      16.213  14.212  42.491  0.00  0.00    +0.000 C 
ATOM     21  C   UNL A   1      16.815  13.943  41.340  0.00  0.00    +0.000 C 
ENDBRANCH  18  20
ENDBRANCH   1  12
BRANCH   1  22
ATOM     22  O   UNL A   1      11.255  14.629  41.687  0.00  0.00    +0.000 OA
ATOM     23  H   UNL A   1      10.396  15.027  41.454  0.00  0.00    +0.000 HD
ENDBRANCH   1  22
TORSDOF 4
ENDMDL
MODEL 13
REMARK VINA RESULT:    -5.665      2.383      7.314
REMARK INTER + INTRA:          -7.420
REMARK INTER:                  -6.790
REMARK INTRA:                  -0.630
REMARK UNBOUND:                -0.596
REMARK  Name = opt56.pdb
REMARK  4 active torsions:
REMARK  status: ('A' for Active; 'I' for Inactive)
REMARK    1  A    between atoms: O_1  and  C_2
REMARK    2  A    between atoms: C_2  and  C_3
REMARK    3  A    between atoms: C_2  and  C_4
REMARK    4  A    between atoms: C_18  and  C_21
REMARK                            x       y       z     vdW  Elec       q    Type
REMARK                         _______ _______ _______ _____ _____    ______ ____
ROOT
ATOM      1  C   UNL A   1      11.067  14.645  43.210  0.00  0.00    +0.000 C 
ENDROOT
BRANCH   1   2
ATOM      2  C   UNL A   1       9.691  14.022  42.919  0.00  0.00    +0.000 A 
ATOM      3  C   UNL A   1       8.703  14.530  42.040  0.00  0.00    +0.000 A 
ATOM      4  C   UNL A   1       9.417  12.821  43.576  0.00  0.00    +0.000 A 
ATOM      5  C   UNL A   1       7.543  13.756  41.810  0.00  0.00    +0.000 A 
ATOM      6  C   UNL A   1       8.819  15.765  41.381  0.00  0.00    +0.000 A 
ATOM      7  C   UNL A   1       8.224  12.150  43.335  0.00  0.00    +0.000 A 
ATOM      8  N   UNL A   1       7.310  12.591  42.454  0.00  0.00    +0.000 NA
ATOM      9  C   UNL A   1       6.590  14.191  40.887  0.00  0.00    +0.000 A 
ATOM     10  C   UNL A   1       7.863  16.180  40.457  0.00  0.00    +0.000 A 
ATOM     11  C   UNL A   1       6.754  15.386  40.197  0.00  0.00    +0.000 A 
ENDBRANCH   1   2
BRANCH   1  12
ATOM     12  C   UNL A   1      12.130  13.564  43.579  0.00  0.00    +0.000 C 
ATOM     13  N   UNL A   1      13.315  13.632  42.656  0.00  0.00    +0.000 NA
ATOM     14  C   UNL A   1      12.628  13.600  45.063  0.00  0.00    +0.000 C 
ATOM     15  C   UNL A   1      14.165  14.842  42.900  0.00  0.00    +0.000 C 
ATOM     16  C   UNL A   1      14.163  12.422  42.854  0.00  0.00    +0.000 C 
ATOM     17  C   UNL A   1      14.179  13.600  45.106  0.00  0.00    +0.000 C 
ATOM     18  C   UNL A   1      14.641  14.895  44.384  0.00  0.00    +0.000 C 
ATOM     19  C   UNL A   1      14.685  12.363  44.316  0.00  0.00    +0.000 C 
BRANCH  18  20
ATOM     20  C   UNL A   1      16.139  15.104  44.502  0.00  0.00    +0.000 C 
ATOM     21  C   UNL A   1      16.812  14.944  45.633  0.00  0.00    +0.000 C 
ENDBRANCH  18  20
ENDBRANCH   1  12
BRANCH   1  22
ATOM     22  O   UNL A   1      11.004  15.710  44.164  0.00  0.00    +0.000 OA
ATOM     23  H   UNL A   1      10.401  15.438  44.879  0.00  0.00    +0.000 HD
ENDBRANCH   1  22
TORSDOF 4
ENDMDL
MODEL 14
REMARK VINA RESULT:    -5.654      2.042      7.478
REMARK INTER + INTRA:          -7.407
REMARK INTER:                  -6.923
REMARK INTRA:                  -0.484
REMARK UNBOUND:                -0.596
REMARK  Name = opt56.pdb
REMARK  4 active torsions:
REMARK  status: ('A' for Active; 'I' for Inactive)
REMARK    1  A    between atoms: O_1  and  C_2
REMARK    2  A    between atoms: C_2  and  C_3
REMARK    3  A    between atoms: C_2  and  C_4
REMARK    4  A    between atoms: C_18  and  C_21
REMARK                            x       y       z     vdW  Elec       q    Type
REMARK                         _______ _______ _______ _____ _____    ______ ____
ROOT
ATOM      1  C   UNL A   1      10.883  14.326  42.592  0.00  0.00    +0.000 C 
ENDROOT
BRANCH   1   2
ATOM      2  C   UNL A   1       9.497  14.746  43.110  0.00  0.00    +0.000 A 
ATOM      3  C   UNL A   1       8.385  13.897  43.328  0.00  0.00    +0.000 A 
ATOM      4  C   UNL A   1       9.347  16.101  43.415  0.00  0.00    +0.000 A 
ATOM      5  C   UNL A   1       7.224  14.445  43.920  0.00  0.00    +0.000 A 
ATOM      6  C   UNL A   1       8.376  12.534  42.987  0.00  0.00    +0.000 A 
ATOM      7  C   UNL A   1       8.151  16.569  43.942  0.00  0.00    +0.000 A 
ATOM      8  N   UNL A   1       7.113  15.759  44.213  0.00  0.00    +0.000 NA
ATOM      9  C   UNL A   1       6.142  13.616  44.223  0.00  0.00    +0.000 A 
ATOM     10  C   UNL A   1       7.292  11.720  43.304  0.00  0.00    +0.000 A 
ATOM     11  C   UNL A   1       6.178  12.256  43.937  0.00  0.00    +0.000 A 
ENDBRANCH   1   2
BRANCH   1  12
ATOM     12  C   UNL A   1      11.860  13.977  43.759  0.00  0.00    +0.000 C 
ATOM     13  N   UNL A   1      12.765  12.835  43.386  0.00  0.00    +0.000 NA
ATOM     14  C   UNL A   1      12.725  15.173  44.283  0.00  0.00    +0.000 C 
ATOM     15  C   UNL A   1      13.795  13.228  42.372  0.00  0.00    +0.000 C 
ATOM     16  C   UNL A   1      13.474  12.351  44.604  0.00  0.00    +0.000 C 
ATOM     17  C   UNL A   1      14.220  14.766  44.336  0.00  0.00    +0.000 C 
ATOM     18  C   UNL A   1      14.641  14.436  42.879  0.00  0.00    +0.000 C 
ATOM     19  C   UNL A   1      14.344  13.488  45.209  0.00  0.00    +0.000 C 
BRANCH  18  20
ATOM     20  C   UNL A   1      16.133  14.183  42.765  0.00  0.00    +0.000 C 
ATOM     21  C   UNL A   1      16.763  14.039  41.607  0.00  0.00    +0.000 C 
ENDBRANCH  18  20
ENDBRANCH   1  12
BRANCH   1  22
ATOM     22  O   UNL A   1      11.439  15.264  41.666  0.00  0.00    +0.000 OA
ATOM     23  H   UNL A   1      11.382  16.151  42.065  0.00  0.00    +0.000 HD
ENDBRANCH   1  22
TORSDOF 4
ENDMDL
MODEL 15
REMARK VINA RESULT:    -5.653      2.395      7.716
REMARK INTER + INTRA:          -7.406
REMARK INTER:                  -6.748
REMARK INTRA:                  -0.659
REMARK UNBOUND:                -0.596
REMARK  Name = opt56.pdb
REMARK  4 active torsions:
REMARK  status: ('A' for Active; 'I' for Inactive)
REMARK    1  A    between atoms: O_1  and  C_2
REMARK    2  A    between atoms: C_2  and  C_3
REMARK    3  A    between atoms: C_2  and  C_4
REMARK    4  A    between atoms: C_18  and  C_21
REMARK                            x       y       z     vdW  Elec       q    Type
REMARK                         _______ _______ _______ _____ _____    ______ ____
ROOT
ATOM      1  C   UNL A   1      10.545  13.372  42.756  0.00  0.00    +0.000 C 
ENDROOT
BRANCH   1   2
ATOM      2  C   UNL A   1       9.070  13.779  42.606  0.00  0.00    +0.000 A 
ATOM      3  C   UNL A   1       7.939  12.964  42.860  0.00  0.00    +0.000 A 
ATOM      4  C   UNL A   1       8.840  15.097  42.204  0.00  0.00    +0.000 A 
ATOM      5  C   UNL A   1       6.655  13.549  42.781  0.00  0.00    +0.000 A 
ATOM      6  C   UNL A   1       8.029  11.602  43.191  0.00  0.00    +0.000 A 
ATOM      7  C   UNL A   1       7.541  15.577  42.096  0.00  0.00    +0.000 A 
ATOM      8  N   UNL A   1       6.465  14.831  42.397  0.00  0.00    +0.000 NA
ATOM      9  C   UNL A   1       5.527  12.793  43.105  0.00  0.00    +0.000 A 
ATOM     10  C   UNL A   1       6.894  10.865  43.521  0.00  0.00    +0.000 A 
ATOM     11  C   UNL A   1       5.642  11.463  43.493  0.00  0.00    +0.000 A 
ENDBRANCH   1   2
BRANCH   1  12
ATOM     12  C   UNL A   1      11.455  14.593  43.100  0.00  0.00    +0.000 C 
ATOM     13  N   UNL A   1      11.699  14.688  44.580  0.00  0.00    +0.000 NA
ATOM     14  C   UNL A   1      12.827  14.634  42.345  0.00  0.00    +0.000 C 
ATOM     15  C   UNL A   1      12.612  13.610  45.081  0.00  0.00    +0.000 C 
ATOM     16  C   UNL A   1      12.323  16.004  44.893  0.00  0.00    +0.000 C 
ATOM     17  C   UNL A   1      13.984  14.851  43.354  0.00  0.00    +0.000 C 
ATOM     18  C   UNL A   1      13.969  13.631  44.314  0.00  0.00    +0.000 C 
ATOM     19  C   UNL A   1      13.687  16.143  44.162  0.00  0.00    +0.000 C 
BRANCH  18  20
ATOM     20  C   UNL A   1      15.161  13.634  45.251  0.00  0.00    +0.000 C 
ATOM     21  C   UNL A   1      16.411  13.803  44.843  0.00  0.00    +0.000 C 
ENDBRANCH  18  20
ENDBRANCH   1  12
BRANCH   1  22
ATOM     22  O   UNL A   1      11.029  12.617  41.642  0.00  0.00    +0.000 OA
ATOM     23  H   UNL A   1      10.309  12.545  40.990  0.00  0.00    +0.000 HD
ENDBRANCH   1  22
TORSDOF 4
ENDMDL
MODEL 16
REMARK VINA RESULT:    -5.452      2.045      3.005
REMARK INTER + INTRA:          -7.164
REMARK INTER:                  -6.740
REMARK INTRA:                  -0.424
REMARK UNBOUND:                -0.596
REMARK  Name = opt56.pdb
REMARK  4 active torsions:
REMARK  status: ('A' for Active; 'I' for Inactive)
REMARK    1  A    between atoms: O_1  and  C_2
REMARK    2  A    between atoms: C_2  and  C_3
REMARK    3  A    between atoms: C_2  and  C_4
REMARK    4  A    between atoms: C_18  and  C_21
REMARK                            x       y       z     vdW  Elec       q    Type
REMARK                         _______ _______ _______ _____ _____    ______ ____
ROOT
ATOM      1  C   UNL A   1      11.613  14.452  44.355  0.00  0.00    +0.000 C 
ENDROOT
BRANCH   1   2
ATOM      2  C   UNL A   1      12.947  13.758  44.034  0.00  0.00    +0.000 A 
ATOM      3  C   UNL A   1      14.070  14.340  43.396  0.00  0.00    +0.000 A 
ATOM      4  C   UNL A   1      13.054  12.427  44.444  0.00  0.00    +0.000 A 
ATOM      5  C   UNL A   1      15.256  13.579  43.291  0.00  0.00    +0.000 A 
ATOM      6  C   UNL A   1      14.066  15.641  42.864  0.00  0.00    +0.000 A 
ATOM      7  C   UNL A   1      14.240  11.730  44.251  0.00  0.00    +0.000 A 
ATOM      8  N   UNL A   1      15.331  12.295  43.706  0.00  0.00    +0.000 NA
ATOM      9  C   UNL A   1      16.403  14.154  42.741  0.00  0.00    +0.000 A 
ATOM     10  C   UNL A   1      15.222  16.202  42.328  0.00  0.00    +0.000 A 
ATOM     11  C   UNL A   1      16.397  15.465  42.279  0.00  0.00    +0.000 A 
ENDBRANCH   1   2
BRANCH   1  12
ATOM     12  C   UNL A   1      10.592  14.323  43.181  0.00  0.00    +0.000 C 
ATOM     13  N   UNL A   1       9.642  13.181  43.411  0.00  0.00    +0.000 NA
ATOM     14  C   UNL A   1       9.774  15.621  42.864  0.00  0.00    +0.000 C 
ATOM     15  C   UNL A   1       8.657  13.467  44.504  0.00  0.00    +0.000 C 
ATOM     16  C   UNL A   1       8.880  12.914  42.159  0.00  0.00    +0.000 C 
ATOM     17  C   UNL A   1       8.260  15.295  42.799  0.00  0.00    +0.000 C 
ATOM     18  C   UNL A   1       7.859  14.772  44.205  0.00  0.00    +0.000 C 
ATOM     19  C   UNL A   1       8.052  14.166  41.753  0.00  0.00    +0.000 C 
BRANCH  18  20
ATOM     20  C   UNL A   1       6.360  14.573  44.329  0.00  0.00    +0.000 C 
ATOM     21  C   UNL A   1       5.801  13.417  44.658  0.00  0.00    +0.000 C 
ENDBRANCH  18  20
ENDBRANCH   1  12
BRANCH   1  22
ATOM     22  O   UNL A   1      11.781  15.802  44.797  0.00  0.00    +0.000 OA
ATOM     23  H   UNL A   1      11.033  16.326  44.457  0.00  0.00    +0.000 HD
ENDBRANCH   1  22
TORSDOF 4
ENDMDL
MODEL 17
REMARK VINA RESULT:    -5.385      1.620      6.911
REMARK INTER + INTRA:          -7.083
REMARK INTER:                  -6.397
REMARK INTRA:                  -0.686
REMARK UNBOUND:                -0.596
REMARK  Name = opt56.pdb
REMARK  4 active torsions:
REMARK  status: ('A' for Active; 'I' for Inactive)
REMARK    1  A    between atoms: O_1  and  C_2
REMARK    2  A    between atoms: C_2  and  C_3
REMARK    3  A    between atoms: C_2  and  C_4
REMARK    4  A    between atoms: C_18  and  C_21
REMARK                            x       y       z     vdW  Elec       q    Type
REMARK                         _______ _______ _______ _____ _____    ______ ____
ROOT
ATOM      1  C   UNL A   1      14.148  13.740  44.052  0.00  0.00    +0.000 C 
ENDROOT
BRANCH   1   2
ATOM      2  C   UNL A   1      12.789  13.503  43.372  0.00  0.00    +0.000 A 
ATOM      3  C   UNL A   1      11.686  14.391  43.358  0.00  0.00    +0.000 A 
ATOM      4  C   UNL A   1      12.657  12.296  42.682  0.00  0.00    +0.000 A 
ATOM      5  C   UNL A   1      10.556  14.051  42.580  0.00  0.00    +0.000 A 
ATOM      6  C   UNL A   1      11.658  15.597  44.078  0.00  0.00    +0.000 A 
ATOM      7  C   UNL A   1      11.488  12.014  41.987  0.00  0.00    +0.000 A 
ATOM      8  N   UNL A   1      10.462  12.879  41.914  0.00  0.00    +0.000 NA
ATOM      9  C   UNL A   1       9.487  14.944  42.481  0.00  0.00    +0.000 A 
ATOM     10  C   UNL A   1      10.587  16.481  43.961  0.00  0.00    +0.000 A 
ATOM     11  C   UNL A   1       9.506  16.162  43.150  0.00  0.00    +0.000 A 
ENDBRANCH   1   2
BRANCH   1  12
ATOM     12  C   UNL A   1      15.115  14.568  43.149  0.00  0.00    +0.000 C 
ATOM     13  N   UNL A   1      15.719  15.716  43.910  0.00  0.00    +0.000 NA
ATOM     14  C   UNL A   1      16.257  13.744  42.464  0.00  0.00    +0.000 C 
ATOM     15  C   UNL A   1      16.726  15.265  44.923  0.00  0.00    +0.000 C 
ATOM     16  C   UNL A   1      16.400  16.635  42.956  0.00  0.00    +0.000 C 
ATOM     17  C   UNL A   1      17.628  14.423  42.713  0.00  0.00    +0.000 C 
ATOM     18  C   UNL A   1      17.851  14.421  44.249  0.00  0.00    +0.000 C 
ATOM     19  C   UNL A   1      17.540  15.889  42.208  0.00  0.00    +0.000 C 
BRANCH  18  20
ATOM     20  C   UNL A   1      19.239  14.909  44.620  0.00  0.00    +0.000 C 
ATOM     21  C   UNL A   1      20.354  14.329  44.197  0.00  0.00    +0.000 C 
ENDBRANCH  18  20
ENDBRANCH   1  12
BRANCH   1  22
ATOM     22  O   UNL A   1      14.743  12.535  44.541  0.00  0.00    +0.000 OA
ATOM     23  H   UNL A   1      15.658  12.738  44.808  0.00  0.00    +0.000 HD
ENDBRANCH   1  22
TORSDOF 4
ENDMDL
MODEL 18
REMARK VINA RESULT:    -5.369      1.911      6.978
REMARK INTER + INTRA:          -7.064
REMARK INTER:                  -6.363
REMARK INTRA:                  -0.702
REMARK UNBOUND:                -0.596
REMARK  Name = opt56.pdb
REMARK  4 active torsions:
REMARK  status: ('A' for Active; 'I' for Inactive)
REMARK    1  A    between atoms: O_1  and  C_2
REMARK    2  A    between atoms: C_2  and  C_3
REMARK    3  A    between atoms: C_2  and  C_4
REMARK    4  A    between atoms: C_18  and  C_21
REMARK                            x       y       z     vdW  Elec       q    Type
REMARK                         _______ _______ _______ _____ _____    ______ ____
ROOT
ATOM      1  C   UNL A   1      13.452  15.300  42.659  0.00  0.00    +0.000 C 
ENDROOT
BRANCH   1   2
ATOM      2  C   UNL A   1      11.958  15.524  42.948  0.00  0.00    +0.000 A 
ATOM      3  C   UNL A   1      10.957  14.525  43.038  0.00  0.00    +0.000 A 
ATOM      4  C   UNL A   1      11.572  16.848  43.166  0.00  0.00    +0.000 A 
ATOM      5  C   UNL A   1       9.654  14.910  43.429  0.00  0.00    +0.000 A 
ATOM      6  C   UNL A   1      11.194  13.168  42.761  0.00  0.00    +0.000 A 
ATOM      7  C   UNL A   1      10.255  17.147  43.491  0.00  0.00    +0.000 A 
ATOM      8  N   UNL A   1       9.314  16.199  43.643  0.00  0.00    +0.000 NA
ATOM      9  C   UNL A   1       8.667  13.938  43.605  0.00  0.00    +0.000 A 
ATOM     10  C   UNL A   1      10.200  12.211  42.952  0.00  0.00    +0.000 A 
ATOM     11  C   UNL A   1       8.939  12.592  43.389  0.00  0.00    +0.000 A 
ENDBRANCH   1   2
BRANCH   1  12
ATOM     12  C   UNL A   1      14.242  14.907  43.946  0.00  0.00    +0.000 C 
ATOM     13  N   UNL A   1      15.011  13.631  43.743  0.00  0.00    +0.000 NA
ATOM     14  C   UNL A   1      15.207  16.011  44.498  0.00  0.00    +0.000 C 
ATOM     15  C   UNL A   1      16.187  13.810  42.831  0.00  0.00    +0.000 C 
ATOM     16  C   UNL A   1      15.514  13.144  45.058  0.00  0.00    +0.000 C 
ATOM     17  C   UNL A   1      16.616  15.413  44.743  0.00  0.00    +0.000 C 
ATOM     18  C   UNL A   1      17.136  14.927  43.363  0.00  0.00    +0.000 C 
ATOM     19  C   UNL A   1      16.467  14.195  45.694  0.00  0.00    +0.000 C 
BRANCH  18  20
ATOM     20  C   UNL A   1      18.582  14.470  43.433  0.00  0.00    +0.000 C 
ATOM     21  C   UNL A   1      19.559  15.212  43.935  0.00  0.00    +0.000 C 
ENDBRANCH  18  20
ENDBRANCH   1  12
BRANCH   1  22
ATOM     22  O   UNL A   1      14.051  16.390  41.952  0.00  0.00    +0.000 OA
ATOM     23  H   UNL A   1      14.949  16.522  42.306  0.00  0.00    +0.000 HD
ENDBRANCH   1  22
TORSDOF 4
ENDMDL
MODEL 19
REMARK VINA RESULT:    -5.344      2.248      3.515
REMARK INTER + INTRA:          -7.034
REMARK INTER:                  -6.423
REMARK INTRA:                  -0.611
REMARK UNBOUND:                -0.596
REMARK  Name = opt56.pdb
REMARK  4 active torsions:
REMARK  status: ('A' for Active; 'I' for Inactive)
REMARK    1  A    between atoms: O_1  and  C_2
REMARK    2  A    between atoms: C_2  and  C_3
REMARK    3  A    between atoms: C_2  and  C_4
REMARK    4  A    between atoms: C_18  and  C_21
REMARK                            x       y       z     vdW  Elec       q    Type
REMARK                         _______ _______ _______ _____ _____    ______ ____
ROOT
ATOM      1  C   UNL A   1      11.153  14.190  44.191  0.00  0.00    +0.000 C 
ENDROOT
BRANCH   1   2
ATOM      2  C   UNL A   1      12.200  15.312  44.305  0.00  0.00    +0.000 A 
ATOM      3  C   UNL A   1      13.603  15.148  44.413  0.00  0.00    +0.000 A 
ATOM      4  C   UNL A   1      11.701  16.615  44.269  0.00  0.00    +0.000 A 
ATOM      5  C   UNL A   1      14.420  16.302  44.388  0.00  0.00    +0.000 A 
ATOM      6  C   UNL A   1      14.226  13.896  44.540  0.00  0.00    +0.000 A 
ATOM      7  C   UNL A   1      12.571  17.697  44.307  0.00  0.00    +0.000 A 
ATOM      8  N   UNL A   1      13.907  17.551  44.344  0.00  0.00    +0.000 NA
ATOM      9  C   UNL A   1      15.809  16.169  44.411  0.00  0.00    +0.000 A 
ATOM     10  C   UNL A   1      15.614  13.781  44.551  0.00  0.00    +0.000 A 
ATOM     11  C   UNL A   1      16.409  14.916  44.471  0.00  0.00    +0.000 A 
ENDBRANCH   1   2
BRANCH   1  12
ATOM     12  C   UNL A   1       9.831  14.692  43.531  0.00  0.00    +0.000 C 
ATOM     13  N   UNL A   1       9.515  13.910  42.286  0.00  0.00    +0.000 NA
ATOM     14  C   UNL A   1       8.578  14.696  44.471  0.00  0.00    +0.000 C 
ATOM     15  C   UNL A   1       9.073  12.510  42.585  0.00  0.00    +0.000 C 
ATOM     16  C   UNL A   1       8.421  14.592  41.540  0.00  0.00    +0.000 C 
ATOM     17  C   UNL A   1       7.391  13.976  43.780  0.00  0.00    +0.000 C 
ATOM     18  C   UNL A   1       7.842  12.510  43.541  0.00  0.00    +0.000 C 
ATOM     19  C   UNL A   1       7.137  14.664  42.411  0.00  0.00    +0.000 C 
BRANCH  18  20
ATOM     20  C   UNL A   1       6.707  11.647  43.021  0.00  0.00    +0.000 C 
ATOM     21  C   UNL A   1       6.448  10.428  43.475  0.00  0.00    +0.000 C 
ENDBRANCH  18  20
ENDBRANCH   1  12
BRANCH   1  22
ATOM     22  O   UNL A   1      10.931  13.510  45.430  0.00  0.00    +0.000 OA
ATOM     23  H   UNL A   1      11.436  13.973  46.123  0.00  0.00    +0.000 HD
ENDBRANCH   1  22
TORSDOF 4
ENDMDL
MODEL 20
REMARK VINA RESULT:    -5.191      2.417      3.133
REMARK INTER + INTRA:          -6.850
REMARK INTER:                  -6.471
REMARK INTRA:                  -0.378
REMARK UNBOUND:                -0.596
REMARK  Name = opt56.pdb
REMARK  4 active torsions:
REMARK  status: ('A' for Active; 'I' for Inactive)
REMARK    1  A    between atoms: O_1  and  C_2
REMARK    2  A    between atoms: C_2  and  C_3
REMARK    3  A    between atoms: C_2  and  C_4
REMARK    4  A    between atoms: C_18  and  C_21
REMARK                            x       y       z     vdW  Elec       q    Type
REMARK                         _______ _______ _______ _____ _____    ______ ____
ROOT
ATOM      1  C   UNL A   1      11.374  13.733  42.551  0.00  0.00    +0.000 C 
ENDROOT
BRANCH   1   2
ATOM      2  C   UNL A   1      12.699  13.753  43.331  0.00  0.00    +0.000 A 
ATOM      3  C   UNL A   1      13.537  14.875  43.543  0.00  0.00    +0.000 A 
ATOM      4  C   UNL A   1      13.087  12.539  43.902  0.00  0.00    +0.000 A 
ATOM      5  C   UNL A   1      14.660  14.728  44.388  0.00  0.00    +0.000 A 
ATOM      6  C   UNL A   1      13.305  16.132  42.958  0.00  0.00    +0.000 A 
ATOM      7  C   UNL A   1      14.239  12.468  44.674  0.00  0.00    +0.000 A 
ATOM      8  N   UNL A   1      15.005  13.542  44.934  0.00  0.00    +0.000 NA
ATOM      9  C   UNL A   1      15.458  15.836  44.681  0.00  0.00    +0.000 A 
ATOM     10  C   UNL A   1      14.106  17.229  43.269  0.00  0.00    +0.000 A 
ATOM     11  C   UNL A   1      15.174  17.086  44.143  0.00  0.00    +0.000 A 
ENDBRANCH   1   2
BRANCH   1  12
ATOM     12  C   UNL A   1      10.223  14.432  43.340  0.00  0.00    +0.000 C 
ATOM     13  N   UNL A   1       9.145  14.919  42.410  0.00  0.00    +0.000 NA
ATOM     14  C   UNL A   1       9.575  13.571  44.476  0.00  0.00    +0.000 C 
ATOM     15  C   UNL A   1       8.339  13.797  41.830  0.00  0.00    +0.000 C 
ATOM     16  C   UNL A   1       8.220  15.817  43.156  0.00  0.00    +0.000 C 
ATOM     17  C   UNL A   1       8.031  13.572  44.332  0.00  0.00    +0.000 C 
ATOM     18  C   UNL A   1       7.715  12.921  42.959  0.00  0.00    +0.000 C 
ATOM     19  C   UNL A   1       7.546  15.047  44.326  0.00  0.00    +0.000 C 
BRANCH  18  20
ATOM     20  C   UNL A   1       6.225  12.706  42.765  0.00  0.00    +0.000 C 
ATOM     21  C   UNL A   1       5.522  11.809  43.443  0.00  0.00    +0.000 C 
ENDBRANCH  18  20
ENDBRANCH   1  12
BRANCH   1  22
ATOM     22  O   UNL A   1      11.017  12.425  42.093  0.00  0.00    +0.000 OA
ATOM     23  H   UNL A   1      10.984  12.445  41.120  0.00  0.00    +0.000 HD
ENDBRANCH   1  22
TORSDOF 4
ENDMDL
