MODEL 1
REMARK VINA RESULT:    -4.537      0.000      0.000
REMARK INTER + INTRA:          -5.096
REMARK INTER:                  -5.068
REMARK INTRA:                  -0.028
REMARK UNBOUND:                -0.028
REMARK  Name = opt22.pdb
REMARK  3 active torsions:
REMARK  status: ('A' for Active; 'I' for Inactive)
REMARK    1  A    between atoms: C_3  and  O_5
REMARK    2  A    between atoms: C_7  and  C_9
REMARK    3  A    between atoms: C_9  and  O_10
REMARK                            x       y       z     vdW  Elec       q    Type
REMARK                         _______ _______ _______ _____ _____    ______ ____
ROOT
ATOM      1  O   UNL     1      15.018  13.343  45.507  0.00  0.00    +0.000 OA
ATOM      2  C   UNL     1      14.026  12.931  44.937  0.00  0.00    +0.000 A 
ATOM      3  C   UNL     1      13.931  11.597  44.335  0.00  0.00    +0.000 A 
ATOM      4  C   UNL     1      12.810  13.726  44.770  0.00  0.00    +0.000 A 
ATOM      5  C   UNL     1      12.786  11.174  43.694  0.00  0.00    +0.000 A 
ATOM      6  C   UNL     1      11.710  13.225  44.109  0.00  0.00    +0.000 A 
ATOM      7  O   UNL     1      11.642  11.951  43.565  0.00  0.00    +0.000 OA
ENDROOT
BRANCH   3   8
ATOM      8  O   UNL     1      15.043  10.838  44.457  0.00  0.00    +0.000 OA
ATOM      9  H   UNL     1      14.741   9.928  44.658  0.00  0.00    +0.000 HD
ENDBRANCH   3   8
BRANCH   6  10
ATOM     10  C   UNL     1      10.483  14.081  43.944  0.00  0.00    +0.000 C 
BRANCH  10  11
ATOM     11  O   UNL     1       9.299  13.316  44.171  0.00  0.00    +0.000 OA
ATOM     12  H   UNL     1       8.556  13.941  44.275  0.00  0.00    +0.000 HD
ENDBRANCH  10  11
ENDBRANCH   6  10
TORSDOF 3
ENDMDL
MODEL 2
REMARK VINA RESULT:    -4.391      1.762      4.417
REMARK INTER + INTRA:          -4.933
REMARK INTER:                  -4.913
REMARK INTRA:                  -0.020
REMARK UNBOUND:                -0.028
REMARK  Name = opt22.pdb
REMARK  3 active torsions:
REMARK  status: ('A' for Active; 'I' for Inactive)
REMARK    1  A    between atoms: C_3  and  O_5
REMARK    2  A    between atoms: C_7  and  C_9
REMARK    3  A    between atoms: C_9  and  O_10
REMARK                            x       y       z     vdW  Elec       q    Type
REMARK                         _______ _______ _______ _____ _____    ______ ____
ROOT
ATOM      1  O   UNL     1      11.339  11.507  40.591  0.00  0.00    +0.000 OA
ATOM      2  C   UNL     1      11.548  11.922  41.715  0.00  0.00    +0.000 A 
ATOM      3  C   UNL     1      10.559  12.664  42.505  0.00  0.00    +0.000 A 
ATOM      4  C   UNL     1      12.823  11.743  42.410  0.00  0.00    +0.000 A 
ATOM      5  C   UNL     1      10.843  13.118  43.773  0.00  0.00    +0.000 A 
ATOM      6  C   UNL     1      13.023  12.237  43.680  0.00  0.00    +0.000 A 
ATOM      7  O   UNL     1      12.062  12.920  44.411  0.00  0.00    +0.000 OA
ENDROOT
BRANCH   3   8
ATOM      8  O   UNL     1       9.373  12.862  41.887  0.00  0.00    +0.000 OA
ATOM      9  H   UNL     1       8.965  13.646  42.310  0.00  0.00    +0.000 HD
ENDBRANCH   3   8
BRANCH   6  10
ATOM     10  C   UNL     1      14.355  12.046  44.355  0.00  0.00    +0.000 C 
BRANCH  10  11
ATOM     11  O   UNL     1      14.747  10.673  44.317  0.00  0.00    +0.000 OA
ATOM     12  H   UNL     1      15.479  10.555  44.952  0.00  0.00    +0.000 HD
ENDBRANCH  10  11
ENDBRANCH   6  10
TORSDOF 3
ENDMDL
MODEL 3
REMARK VINA RESULT:    -4.383      1.191      4.329
REMARK INTER + INTRA:          -4.924
REMARK INTER:                  -4.902
REMARK INTRA:                  -0.022
REMARK UNBOUND:                -0.028
REMARK  Name = opt22.pdb
REMARK  3 active torsions:
REMARK  status: ('A' for Active; 'I' for Inactive)
REMARK    1  A    between atoms: C_3  and  O_5
REMARK    2  A    between atoms: C_7  and  C_9
REMARK    3  A    between atoms: C_9  and  O_10
REMARK                            x       y       z     vdW  Elec       q    Type
REMARK                         _______ _______ _______ _____ _____    ______ ____
ROOT
ATOM      1  O   UNL     1      10.256  11.550  42.598  0.00  0.00    +0.000 OA
ATOM      2  C   UNL     1      11.078  12.152  43.261  0.00  0.00    +0.000 A 
ATOM      3  C   UNL     1      10.805  13.429  43.930  0.00  0.00    +0.000 A 
ATOM      4  C   UNL     1      12.448  11.679  43.461  0.00  0.00    +0.000 A 
ATOM      5  C   UNL     1      11.769  14.077  44.669  0.00  0.00    +0.000 A 
ATOM      6  C   UNL     1      13.352  12.396  44.214  0.00  0.00    +0.000 A 
ATOM      7  O   UNL     1      13.059  13.594  44.849  0.00  0.00    +0.000 OA
ENDROOT
BRANCH   3   8
ATOM      8  O   UNL     1       9.552  13.904  43.754  0.00  0.00    +0.000 OA
ATOM      9  H   UNL     1       9.351  13.820  42.799  0.00  0.00    +0.000 HD
ENDBRANCH   3   8
BRANCH   6  10
ATOM     10  C   UNL     1      14.757  11.884  44.381  0.00  0.00    +0.000 C 
BRANCH  10  11
ATOM     11  O   UNL     1      14.770  10.458  44.443  0.00  0.00    +0.000 OA
ATOM     12  H   UNL     1      15.007  10.123  43.557  0.00  0.00    +0.000 HD
ENDBRANCH  10  11
ENDBRANCH   6  10
TORSDOF 3
ENDMDL
MODEL 4
REMARK VINA RESULT:    -4.311      1.705      3.015
REMARK INTER + INTRA:          -4.843
REMARK INTER:                  -4.814
REMARK INTRA:                  -0.030
REMARK UNBOUND:                -0.028
REMARK  Name = opt22.pdb
REMARK  3 active torsions:
REMARK  status: ('A' for Active; 'I' for Inactive)
REMARK    1  A    between atoms: C_3  and  O_5
REMARK    2  A    between atoms: C_7  and  C_9
REMARK    3  A    between atoms: C_9  and  O_10
REMARK                            x       y       z     vdW  Elec       q    Type
REMARK                         _______ _______ _______ _____ _____    ______ ____
ROOT
ATOM      1  O   UNL     1      12.349  10.980  43.701  0.00  0.00    +0.000 OA
ATOM      2  C   UNL     1      13.094  11.921  43.900  0.00  0.00    +0.000 A 
ATOM      3  C   UNL     1      14.498  11.775  44.300  0.00  0.00    +0.000 A 
ATOM      4  C   UNL     1      12.672  13.316  43.775  0.00  0.00    +0.000 A 
ATOM      5  C   UNL     1      15.303  12.872  44.518  0.00  0.00    +0.000 A 
ATOM      6  C   UNL     1      13.545  14.354  44.017  0.00  0.00    +0.000 A 
ATOM      7  O   UNL     1      14.873  14.186  44.378  0.00  0.00    +0.000 OA
ENDROOT
BRANCH   3   8
ATOM      8  O   UNL     1      14.919  10.499  44.440  0.00  0.00    +0.000 OA
ATOM      9  H   UNL     1      15.842  10.471  44.115  0.00  0.00    +0.000 HD
ENDBRANCH   3   8
BRANCH   6  10
ATOM     10  C   UNL     1      13.067  15.776  43.894  0.00  0.00    +0.000 C 
BRANCH  10  11
ATOM     11  O   UNL     1      13.640  16.590  44.917  0.00  0.00    +0.000 OA
ATOM     12  H   UNL     1      14.150  17.299  44.482  0.00  0.00    +0.000 HD
ENDBRANCH  10  11
ENDBRANCH   6  10
TORSDOF 3
ENDMDL
MODEL 5
REMARK VINA RESULT:    -4.286      1.752      4.036
REMARK INTER + INTRA:          -4.816
REMARK INTER:                  -4.796
REMARK INTRA:                  -0.019
REMARK UNBOUND:                -0.028
REMARK  Name = opt22.pdb
REMARK  3 active torsions:
REMARK  status: ('A' for Active; 'I' for Inactive)
REMARK    1  A    between atoms: C_3  and  O_5
REMARK    2  A    between atoms: C_7  and  C_9
REMARK    3  A    between atoms: C_9  and  O_10
REMARK                            x       y       z     vdW  Elec       q    Type
REMARK                         _______ _______ _______ _____ _____    ______ ____
ROOT
ATOM      1  O   UNL     1      11.725  13.578  44.735  0.00  0.00    +0.000 OA
ATOM      2  C   UNL     1      12.842  13.342  44.315  0.00  0.00    +0.000 A 
ATOM      3  C   UNL     1      13.106  12.517  43.131  0.00  0.00    +0.000 A 
ATOM      4  C   UNL     1      14.060  13.842  44.952  0.00  0.00    +0.000 A 
ATOM      5  C   UNL     1      14.389  12.273  42.694  0.00  0.00    +0.000 A 
ATOM      6  C   UNL     1      15.307  13.544  44.448  0.00  0.00    +0.000 A 
ATOM      7  O   UNL     1      15.526  12.775  43.315  0.00  0.00    +0.000 OA
ENDROOT
BRANCH   3   8
ATOM      8  O   UNL     1      12.003  12.025  42.525  0.00  0.00    +0.000 OA
ATOM      9  H   UNL     1      11.290  12.025  43.197  0.00  0.00    +0.000 HD
ENDBRANCH   3   8
BRANCH   6  10
ATOM     10  C   UNL     1      16.537  14.064  45.143  0.00  0.00    +0.000 C 
BRANCH  10  11
ATOM     11  O   UNL     1      16.589  13.599  46.492  0.00  0.00    +0.000 OA
ATOM     12  H   UNL     1      17.437  13.893  46.875  0.00  0.00    +0.000 HD
ENDBRANCH  10  11
ENDBRANCH   6  10
TORSDOF 3
ENDMDL
MODEL 6
REMARK VINA RESULT:    -4.141      3.080      4.619
REMARK INTER + INTRA:          -4.653
REMARK INTER:                  -4.632
REMARK INTRA:                  -0.021
REMARK UNBOUND:                -0.028
REMARK  Name = opt22.pdb
REMARK  3 active torsions:
REMARK  status: ('A' for Active; 'I' for Inactive)
REMARK    1  A    between atoms: C_3  and  O_5
REMARK    2  A    between atoms: C_7  and  C_9
REMARK    3  A    between atoms: C_9  and  O_10
REMARK                            x       y       z     vdW  Elec       q    Type
REMARK                         _______ _______ _______ _____ _____    ______ ____
ROOT
ATOM      1  O   UNL     1      16.445  14.904  41.563  0.00  0.00    +0.000 OA
ATOM      2  C   UNL     1      16.223  14.402  42.649  0.00  0.00    +0.000 A 
ATOM      3  C   UNL     1      16.847  14.856  43.896  0.00  0.00    +0.000 A 
ATOM      4  C   UNL     1      15.313  13.273  42.838  0.00  0.00    +0.000 A 
ATOM      5  C   UNL     1      16.568  14.254  45.103  0.00  0.00    +0.000 A 
ATOM      6  C   UNL     1      15.095  12.728  44.084  0.00  0.00    +0.000 A 
ATOM      7  O   UNL     1      15.687  13.190  45.250  0.00  0.00    +0.000 OA
ENDROOT
BRANCH   3   8
ATOM      8  O   UNL     1      17.707  15.890  43.757  0.00  0.00    +0.000 OA
ATOM      9  H   UNL     1      17.224  16.594  43.276  0.00  0.00    +0.000 HD
ENDBRANCH   3   8
BRANCH   6  10
ATOM     10  C   UNL     1      14.164  11.555  44.234  0.00  0.00    +0.000 C 
BRANCH  10  11
ATOM     11  O   UNL     1      14.900  10.354  44.470  0.00  0.00    +0.000 OA
ATOM     12  H   UNL     1      15.714  10.594  44.953  0.00  0.00    +0.000 HD
ENDBRANCH  10  11
ENDBRANCH   6  10
TORSDOF 3
ENDMDL
MODEL 7
REMARK VINA RESULT:    -4.124      2.906      4.298
REMARK INTER + INTRA:          -4.634
REMARK INTER:                  -4.601
REMARK INTRA:                  -0.033
REMARK UNBOUND:                -0.028
REMARK  Name = opt22.pdb
REMARK  3 active torsions:
REMARK  status: ('A' for Active; 'I' for Inactive)
REMARK    1  A    between atoms: C_3  and  O_5
REMARK    2  A    between atoms: C_7  and  C_9
REMARK    3  A    between atoms: C_9  and  O_10
REMARK                            x       y       z     vdW  Elec       q    Type
REMARK                         _______ _______ _______ _____ _____    ______ ____
ROOT
ATOM      1  O   UNL     1      13.619  16.299  43.061  0.00  0.00    +0.000 OA
ATOM      2  C   UNL     1      14.206  15.236  43.001  0.00  0.00    +0.000 A 
ATOM      3  C   UNL     1      15.452  15.038  42.253  0.00  0.00    +0.000 A 
ATOM      4  C   UNL     1      13.731  14.019  43.660  0.00  0.00    +0.000 A 
ATOM      5  C   UNL     1      16.081  13.813  42.210  0.00  0.00    +0.000 A 
ATOM      6  C   UNL     1      14.422  12.832  43.560  0.00  0.00    +0.000 A 
ATOM      7  O   UNL     1      15.608  12.679  42.858  0.00  0.00    +0.000 OA
ENDROOT
BRANCH   3   8
ATOM      8  O   UNL     1      15.914  16.138  41.618  0.00  0.00    +0.000 OA
ATOM      9  H   UNL     1      15.169  16.489  41.087  0.00  0.00    +0.000 HD
ENDBRANCH   3   8
BRANCH   6  10
ATOM     10  C   UNL     1      13.890  11.599  44.239  0.00  0.00    +0.000 C 
BRANCH  10  11
ATOM     11  O   UNL     1      14.928  10.634  44.417  0.00  0.00    +0.000 OA
ATOM     12  H   UNL     1      15.263  10.723  45.330  0.00  0.00    +0.000 HD
ENDBRANCH  10  11
ENDBRANCH   6  10
TORSDOF 3
ENDMDL
MODEL 8
REMARK VINA RESULT:    -4.116      2.302      4.201
REMARK INTER + INTRA:          -4.626
REMARK INTER:                  -4.591
REMARK INTRA:                  -0.034
REMARK UNBOUND:                -0.028
REMARK  Name = opt22.pdb
REMARK  3 active torsions:
REMARK  status: ('A' for Active; 'I' for Inactive)
REMARK    1  A    between atoms: C_3  and  O_5
REMARK    2  A    between atoms: C_7  and  C_9
REMARK    3  A    between atoms: C_9  and  O_10
REMARK                            x       y       z     vdW  Elec       q    Type
REMARK                         _______ _______ _______ _____ _____    ______ ____
ROOT
ATOM      1  O   UNL     1      13.059  16.114  44.638  0.00  0.00    +0.000 OA
ATOM      2  C   UNL     1      13.843  15.184  44.653  0.00  0.00    +0.000 A 
ATOM      3  C   UNL     1      15.289  15.344  44.837  0.00  0.00    +0.000 A 
ATOM      4  C   UNL     1      13.436  13.791  44.473  0.00  0.00    +0.000 A 
ATOM      5  C   UNL     1      16.140  14.261  44.842  0.00  0.00    +0.000 A 
ATOM      6  C   UNL     1      14.357  12.767  44.488  0.00  0.00    +0.000 A 
ATOM      7  O   UNL     1      15.718  12.947  44.682  0.00  0.00    +0.000 OA
ENDROOT
BRANCH   3   8
ATOM      8  O   UNL     1      15.704  16.621  44.991  0.00  0.00    +0.000 OA
ATOM      9  H   UNL     1      15.845  16.757  45.951  0.00  0.00    +0.000 HD
ENDBRANCH   3   8
BRANCH   6  10
ATOM     10  C   UNL     1      13.899  11.347  44.283  0.00  0.00    +0.000 C 
BRANCH  10  11
ATOM     11  O   UNL     1      14.978  10.435  44.493  0.00  0.00    +0.000 OA
ATOM     12  H   UNL     1      15.288  10.547  45.411  0.00  0.00    +0.000 HD
ENDBRANCH  10  11
ENDBRANCH   6  10
TORSDOF 3
ENDMDL
MODEL 9
REMARK VINA RESULT:    -4.115      2.164      3.960
REMARK INTER + INTRA:          -4.624
REMARK INTER:                  -4.600
REMARK INTRA:                  -0.024
REMARK UNBOUND:                -0.028
REMARK  Name = opt22.pdb
REMARK  3 active torsions:
REMARK  status: ('A' for Active; 'I' for Inactive)
REMARK    1  A    between atoms: C_3  and  O_5
REMARK    2  A    between atoms: C_7  and  C_9
REMARK    3  A    between atoms: C_9  and  O_10
REMARK                            x       y       z     vdW  Elec       q    Type
REMARK                         _______ _______ _______ _____ _____    ______ ____
ROOT
ATOM      1  O   UNL     1      17.118  14.739  44.888  0.00  0.00    +0.000 OA
ATOM      2  C   UNL     1      15.954  14.415  44.746  0.00  0.00    +0.000 A 
ATOM      3  C   UNL     1      14.841  15.370  44.738  0.00  0.00    +0.000 A 
ATOM      4  C   UNL     1      15.523  13.027  44.580  0.00  0.00    +0.000 A 
ATOM      5  C   UNL     1      13.536  14.956  44.578  0.00  0.00    +0.000 A 
ATOM      6  C   UNL     1      14.193  12.702  44.430  0.00  0.00    +0.000 A 
ATOM      7  O   UNL     1      13.162  13.629  44.409  0.00  0.00    +0.000 OA
ENDROOT
BRANCH   3   8
ATOM      8  O   UNL     1      15.200  16.662  44.905  0.00  0.00    +0.000 OA
ATOM      9  H   UNL     1      14.378  17.159  45.097  0.00  0.00    +0.000 HD
ENDBRANCH   3   8
BRANCH   6  10
ATOM     10  C   UNL     1      13.790  11.260  44.278  0.00  0.00    +0.000 C 
BRANCH  10  11
ATOM     11  O   UNL     1      14.877  10.394  44.608  0.00  0.00    +0.000 OA
ATOM     12  H   UNL     1      14.952   9.728  43.898  0.00  0.00    +0.000 HD
ENDBRANCH  10  11
ENDBRANCH   6  10
TORSDOF 3
ENDMDL
MODEL 10
REMARK VINA RESULT:    -4.109      1.385      3.835
REMARK INTER + INTRA:          -4.618
REMARK INTER:                  -4.585
REMARK INTRA:                  -0.033
REMARK UNBOUND:                -0.028
REMARK  Name = opt22.pdb
REMARK  3 active torsions:
REMARK  status: ('A' for Active; 'I' for Inactive)
REMARK    1  A    between atoms: C_3  and  O_5
REMARK    2  A    between atoms: C_7  and  C_9
REMARK    3  A    between atoms: C_9  and  O_10
REMARK                            x       y       z     vdW  Elec       q    Type
REMARK                         _______ _______ _______ _____ _____    ______ ____
ROOT
ATOM      1  O   UNL     1      11.668  15.672  44.663  0.00  0.00    +0.000 OA
ATOM      2  C   UNL     1      11.899  14.517  44.357  0.00  0.00    +0.000 A 
ATOM      3  C   UNL     1      10.895  13.611  43.790  0.00  0.00    +0.000 A 
ATOM      4  C   UNL     1      13.208  13.889  44.533  0.00  0.00    +0.000 A 
ATOM      5  C   UNL     1      11.202  12.308  43.463  0.00  0.00    +0.000 A 
ATOM      6  C   UNL     1      13.426  12.575  44.182  0.00  0.00    +0.000 A 
ATOM      7  O   UNL     1      12.461  11.746  43.631  0.00  0.00    +0.000 OA
ENDROOT
BRANCH   3   8
ATOM      8  O   UNL     1       9.668  14.153  43.628  0.00  0.00    +0.000 OA
ATOM      9  H   UNL     1       9.787  15.126  43.639  0.00  0.00    +0.000 HD
ENDBRANCH   3   8
BRANCH   6  10
ATOM     10  C   UNL     1      14.784  11.960  44.394  0.00  0.00    +0.000 C 
BRANCH  10  11
ATOM     11  O   UNL     1      14.684  10.539  44.490  0.00  0.00    +0.000 OA
ATOM     12  H   UNL     1      15.079  10.158  43.683  0.00  0.00    +0.000 HD
ENDBRANCH  10  11
ENDBRANCH   6  10
TORSDOF 3
ENDMDL
MODEL 11
REMARK VINA RESULT:    -4.059      1.562      4.383
REMARK INTER + INTRA:          -4.562
REMARK INTER:                  -4.544
REMARK INTRA:                  -0.019
REMARK UNBOUND:                -0.028
REMARK  Name = opt22.pdb
REMARK  3 active torsions:
REMARK  status: ('A' for Active; 'I' for Inactive)
REMARK    1  A    between atoms: C_3  and  O_5
REMARK    2  A    between atoms: C_7  and  C_9
REMARK    3  A    between atoms: C_9  and  O_10
REMARK                            x       y       z     vdW  Elec       q    Type
REMARK                         _______ _______ _______ _____ _____    ______ ____
ROOT
ATOM      1  O   UNL     1      12.456  11.405  43.659  0.00  0.00    +0.000 OA
ATOM      2  C   UNL     1      13.005  12.444  43.973  0.00  0.00    +0.000 A 
ATOM      3  C   UNL     1      12.326  13.743  44.008  0.00  0.00    +0.000 A 
ATOM      4  C   UNL     1      14.419  12.522  44.342  0.00  0.00    +0.000 A 
ATOM      5  C   UNL     1      12.991  14.895  44.368  0.00  0.00    +0.000 A 
ATOM      6  C   UNL     1      15.005  13.721  44.684  0.00  0.00    +0.000 A 
ATOM      7  O   UNL     1      14.333  14.933  44.726  0.00  0.00    +0.000 OA
ENDROOT
BRANCH   3   8
ATOM      8  O   UNL     1      11.021  13.711  43.658  0.00  0.00    +0.000 OA
ATOM      9  H   UNL     1      10.912  12.948  43.053  0.00  0.00    +0.000 HD
ENDBRANCH   3   8
BRANCH   6  10
ATOM     10  C   UNL     1      16.467  13.762  45.042  0.00  0.00    +0.000 C 
BRANCH  10  11
ATOM     11  O   UNL     1      16.659  13.431  46.417  0.00  0.00    +0.000 OA
ATOM     12  H   UNL     1      17.424  13.943  46.743  0.00  0.00    +0.000 HD
ENDBRANCH  10  11
ENDBRANCH   6  10
TORSDOF 3
ENDMDL
MODEL 12
REMARK VINA RESULT:    -4.040      1.952      2.485
REMARK INTER + INTRA:          -4.540
REMARK INTER:                  -4.506
REMARK INTRA:                  -0.034
REMARK UNBOUND:                -0.028
REMARK  Name = opt22.pdb
REMARK  3 active torsions:
REMARK  status: ('A' for Active; 'I' for Inactive)
REMARK    1  A    between atoms: C_3  and  O_5
REMARK    2  A    between atoms: C_7  and  C_9
REMARK    3  A    between atoms: C_9  and  O_10
REMARK                            x       y       z     vdW  Elec       q    Type
REMARK                         _______ _______ _______ _____ _____    ______ ____
ROOT
ATOM      1  O   UNL     1      16.320  13.379  42.825  0.00  0.00    +0.000 OA
ATOM      2  C   UNL     1      15.196  13.081  43.183  0.00  0.00    +0.000 A 
ATOM      3  C   UNL     1      14.783  13.015  44.588  0.00  0.00    +0.000 A 
ATOM      4  C   UNL     1      14.123  12.740  42.250  0.00  0.00    +0.000 A 
ATOM      5  C   UNL     1      13.499  12.669  44.947  0.00  0.00    +0.000 A 
ATOM      6  C   UNL     1      12.865  12.401  42.697  0.00  0.00    +0.000 A 
ATOM      7  O   UNL     1      12.498  12.362  44.034  0.00  0.00    +0.000 OA
ENDROOT
BRANCH   3   8
ATOM      8  O   UNL     1      15.755  13.309  45.480  0.00  0.00    +0.000 OA
ATOM      9  H   UNL     1      16.550  13.549  44.960  0.00  0.00    +0.000 HD
ENDBRANCH   3   8
BRANCH   6  10
ATOM     10  C   UNL     1      11.792  12.039  41.705  0.00  0.00    +0.000 C 
BRANCH  10  11
ATOM     11  O   UNL     1      10.664  11.468  42.368  0.00  0.00    +0.000 OA
ATOM     12  H   UNL     1      10.849  11.472  43.327  0.00  0.00    +0.000 HD
ENDBRANCH  10  11
ENDBRANCH   6  10
TORSDOF 3
ENDMDL
MODEL 13
REMARK VINA RESULT:    -3.906      2.036      3.805
REMARK INTER + INTRA:          -4.390
REMARK INTER:                  -4.356
REMARK INTRA:                  -0.034
REMARK UNBOUND:                -0.028
REMARK  Name = opt22.pdb
REMARK  3 active torsions:
REMARK  status: ('A' for Active; 'I' for Inactive)
REMARK    1  A    between atoms: C_3  and  O_5
REMARK    2  A    between atoms: C_7  and  C_9
REMARK    3  A    between atoms: C_9  and  O_10
REMARK                            x       y       z     vdW  Elec       q    Type
REMARK                         _______ _______ _______ _____ _____    ______ ____
ROOT
ATOM      1  O   UNL     1      14.351  16.461  44.520  0.00  0.00    +0.000 OA
ATOM      2  C   UNL     1      13.753  15.402  44.524  0.00  0.00    +0.000 A 
ATOM      3  C   UNL     1      12.295  15.294  44.636  0.00  0.00    +0.000 A 
ATOM      4  C   UNL     1      14.422  14.105  44.430  0.00  0.00    +0.000 A 
ATOM      5  C   UNL     1      11.661  14.071  44.640  0.00  0.00    +0.000 A 
ATOM      6  C   UNL     1      13.708  12.927  44.446  0.00  0.00    +0.000 A 
ATOM      7  O   UNL     1      12.326  12.855  44.536  0.00  0.00    +0.000 OA
ENDROOT
BRANCH   3   8
ATOM      8  O   UNL     1      11.644  16.474  44.740  0.00  0.00    +0.000 OA
ATOM      9  H   UNL     1      11.338  16.706  43.839  0.00  0.00    +0.000 HD
ENDBRANCH   3   8
BRANCH   6  10
ATOM     10  C   UNL     1      14.434  11.611  44.365  0.00  0.00    +0.000 C 
BRANCH  10  11
ATOM     11  O   UNL     1      13.519  10.522  44.478  0.00  0.00    +0.000 OA
ATOM     12  H   UNL     1      12.634  10.894  44.655  0.00  0.00    +0.000 HD
ENDBRANCH  10  11
ENDBRANCH   6  10
TORSDOF 3
ENDMDL
MODEL 14
REMARK VINA RESULT:    -3.860      1.900      2.361
REMARK INTER + INTRA:          -4.339
REMARK INTER:                  -4.320
REMARK INTRA:                  -0.019
REMARK UNBOUND:                -0.028
REMARK  Name = opt22.pdb
REMARK  3 active torsions:
REMARK  status: ('A' for Active; 'I' for Inactive)
REMARK    1  A    between atoms: C_3  and  O_5
REMARK    2  A    between atoms: C_7  and  C_9
REMARK    3  A    between atoms: C_9  and  O_10
REMARK                            x       y       z     vdW  Elec       q    Type
REMARK                         _______ _______ _______ _____ _____    ______ ____
ROOT
ATOM      1  O   UNL     1      14.496  14.839  43.483  0.00  0.00    +0.000 OA
ATOM      2  C   UNL     1      13.901  13.778  43.482  0.00  0.00    +0.000 A 
ATOM      3  C   UNL     1      14.271  12.639  44.328  0.00  0.00    +0.000 A 
ATOM      4  C   UNL     1      12.750  13.508  42.622  0.00  0.00    +0.000 A 
ATOM      5  C   UNL     1      13.569  11.454  44.289  0.00  0.00    +0.000 A 
ATOM      6  C   UNL     1      12.108  12.289  42.644  0.00  0.00    +0.000 A 
ATOM      7  O   UNL     1      12.470  11.234  43.468  0.00  0.00    +0.000 OA
ENDROOT
BRANCH   3   8
ATOM      8  O   UNL     1      15.342  12.848  45.126  0.00  0.00    +0.000 OA
ATOM      9  H   UNL     1      15.193  12.320  45.938  0.00  0.00    +0.000 HD
ENDBRANCH   3   8
BRANCH   6  10
ATOM     10  C   UNL     1      10.937  12.045  41.731  0.00  0.00    +0.000 C 
BRANCH  10  11
ATOM     11  O   UNL     1      11.369  11.461  40.502  0.00  0.00    +0.000 OA
ATOM     12  H   UNL     1      10.690  10.817  40.223  0.00  0.00    +0.000 HD
ENDBRANCH  10  11
ENDBRANCH   6  10
TORSDOF 3
ENDMDL
MODEL 15
REMARK VINA RESULT:    -3.814      1.782      2.570
REMARK INTER + INTRA:          -4.288
REMARK INTER:                  -4.265
REMARK INTRA:                  -0.024
REMARK UNBOUND:                -0.028
REMARK  Name = opt22.pdb
REMARK  3 active torsions:
REMARK  status: ('A' for Active; 'I' for Inactive)
REMARK    1  A    between atoms: C_3  and  O_5
REMARK    2  A    between atoms: C_7  and  C_9
REMARK    3  A    between atoms: C_9  and  O_10
REMARK                            x       y       z     vdW  Elec       q    Type
REMARK                         _______ _______ _______ _____ _____    ______ ____
ROOT
ATOM      1  O   UNL     1      15.425  12.557  43.042  0.00  0.00    +0.000 OA
ATOM      2  C   UNL     1      14.264  12.809  43.303  0.00  0.00    +0.000 A 
ATOM      3  C   UNL     1      13.825  13.379  44.582  0.00  0.00    +0.000 A 
ATOM      4  C   UNL     1      13.163  12.561  42.374  0.00  0.00    +0.000 A 
ATOM      5  C   UNL     1      12.497  13.645  44.834  0.00  0.00    +0.000 A 
ATOM      6  C   UNL     1      11.860  12.854  42.712  0.00  0.00    +0.000 A 
ATOM      7  O   UNL     1      11.475  13.408  43.923  0.00  0.00    +0.000 OA
ENDROOT
BRANCH   3   8
ATOM      8  O   UNL     1      14.816  13.608  45.472  0.00  0.00    +0.000 OA
ATOM      9  H   UNL     1      15.530  14.070  44.984  0.00  0.00    +0.000 HD
ENDBRANCH   3   8
BRANCH   6  10
ATOM     10  C   UNL     1      10.752  12.567  41.734  0.00  0.00    +0.000 C 
BRANCH  10  11
ATOM     11  O   UNL     1      11.179  11.623  40.751  0.00  0.00    +0.000 OA
ATOM     12  H   UNL     1      10.547  10.879  40.759  0.00  0.00    +0.000 HD
ENDBRANCH  10  11
ENDBRANCH   6  10
TORSDOF 3
ENDMDL
MODEL 16
REMARK VINA RESULT:    -3.747      2.096      3.960
REMARK INTER + INTRA:          -4.213
REMARK INTER:                  -4.183
REMARK INTRA:                  -0.030
REMARK UNBOUND:                -0.028
REMARK  Name = opt22.pdb
REMARK  3 active torsions:
REMARK  status: ('A' for Active; 'I' for Inactive)
REMARK    1  A    between atoms: C_3  and  O_5
REMARK    2  A    between atoms: C_7  and  C_9
REMARK    3  A    between atoms: C_9  and  O_10
REMARK                            x       y       z     vdW  Elec       q    Type
REMARK                         _______ _______ _______ _____ _____    ______ ____
ROOT
ATOM      1  O   UNL     1      11.620  13.308  44.637  0.00  0.00    +0.000 OA
ATOM      2  C   UNL     1      12.810  13.562  44.634  0.00  0.00    +0.000 A 
ATOM      3  C   UNL     1      13.858  12.536  44.665  0.00  0.00    +0.000 A 
ATOM      4  C   UNL     1      13.338  14.925  44.615  0.00  0.00    +0.000 A 
ATOM      5  C   UNL     1      15.194  12.871  44.665  0.00  0.00    +0.000 A 
ATOM      6  C   UNL     1      14.693  15.170  44.621  0.00  0.00    +0.000 A 
ATOM      7  O   UNL     1      15.663  14.179  44.632  0.00  0.00    +0.000 OA
ENDROOT
BRANCH   3   8
ATOM      8  O   UNL     1      13.406  11.263  44.699  0.00  0.00    +0.000 OA
ATOM      9  H   UNL     1      13.093  11.101  45.613  0.00  0.00    +0.000 HD
ENDBRANCH   3   8
BRANCH   6  10
ATOM     10  C   UNL     1      15.196  16.588  44.617  0.00  0.00    +0.000 C 
BRANCH  10  11
ATOM     11  O   UNL     1      16.377  16.706  45.411  0.00  0.00    +0.000 OA
ATOM     12  H   UNL     1      16.833  15.843  45.396  0.00  0.00    +0.000 HD
ENDBRANCH  10  11
ENDBRANCH   6  10
TORSDOF 3
ENDMDL
MODEL 17
REMARK VINA RESULT:    -3.681      2.041      2.491
REMARK INTER + INTRA:          -4.139
REMARK INTER:                  -4.109
REMARK INTRA:                  -0.030
REMARK UNBOUND:                -0.028
REMARK  Name = opt22.pdb
REMARK  3 active torsions:
REMARK  status: ('A' for Active; 'I' for Inactive)
REMARK    1  A    between atoms: C_3  and  O_5
REMARK    2  A    between atoms: C_7  and  C_9
REMARK    3  A    between atoms: C_9  and  O_10
REMARK                            x       y       z     vdW  Elec       q    Type
REMARK                         _______ _______ _______ _____ _____    ______ ____
ROOT
ATOM      1  O   UNL     1      12.216  14.265  44.788  0.00  0.00    +0.000 OA
ATOM      2  C   UNL     1      11.626  13.396  44.174  0.00  0.00    +0.000 A 
ATOM      3  C   UNL     1      12.297  12.273  43.510  0.00  0.00    +0.000 A 
ATOM      4  C   UNL     1      10.173  13.377  44.012  0.00  0.00    +0.000 A 
ATOM      5  C   UNL     1      11.587  11.314  42.822  0.00  0.00    +0.000 A 
ATOM      6  C   UNL     1       9.544  12.378  43.301  0.00  0.00    +0.000 A 
ATOM      7  O   UNL     1      10.204  11.318  42.698  0.00  0.00    +0.000 OA
ENDROOT
BRANCH   3   8
ATOM      8  O   UNL     1      13.644  12.267  43.626  0.00  0.00    +0.000 OA
ATOM      9  H   UNL     1      13.995  11.892  42.792  0.00  0.00    +0.000 HD
ENDBRANCH   3   8
BRANCH   6  10
ATOM     10  C   UNL     1       8.047  12.403  43.142  0.00  0.00    +0.000 C 
BRANCH  10  11
ATOM     11  O   UNL     1       7.518  11.077  43.144  0.00  0.00    +0.000 OA
ATOM     12  H   UNL     1       7.237  10.870  44.056  0.00  0.00    +0.000 HD
ENDBRANCH  10  11
ENDBRANCH   6  10
TORSDOF 3
ENDMDL
MODEL 18
REMARK VINA RESULT:    -3.486      2.332      4.380
REMARK INTER + INTRA:          -3.922
REMARK INTER:                  -3.899
REMARK INTRA:                  -0.023
REMARK UNBOUND:                -0.028
REMARK  Name = opt22.pdb
REMARK  3 active torsions:
REMARK  status: ('A' for Active; 'I' for Inactive)
REMARK    1  A    between atoms: C_3  and  O_5
REMARK    2  A    between atoms: C_7  and  C_9
REMARK    3  A    between atoms: C_9  and  O_10
REMARK                            x       y       z     vdW  Elec       q    Type
REMARK                         _______ _______ _______ _____ _____    ______ ____
ROOT
ATOM      1  O   UNL     1      12.393  11.350  43.655  0.00  0.00    +0.000 OA
ATOM      2  C   UNL     1      13.028  12.387  43.682  0.00  0.00    +0.000 A 
ATOM      3  C   UNL     1      12.526  13.632  44.273  0.00  0.00    +0.000 A 
ATOM      4  C   UNL     1      14.369  12.519  43.113  0.00  0.00    +0.000 A 
ATOM      5  C   UNL     1      13.281  14.784  44.277  0.00  0.00    +0.000 A 
ATOM      6  C   UNL     1      15.052  13.714  43.156  0.00  0.00    +0.000 A 
ATOM      7  O   UNL     1      14.559  14.873  43.738  0.00  0.00    +0.000 OA
ENDROOT
BRANCH   3   8
ATOM      8  O   UNL     1      11.283  13.551  44.796  0.00  0.00    +0.000 OA
ATOM      9  H   UNL     1      11.342  12.954  45.570  0.00  0.00    +0.000 HD
ENDBRANCH   3   8
BRANCH   6  10
ATOM     10  C   UNL     1      16.424  13.814  42.544  0.00  0.00    +0.000 C 
BRANCH  10  11
ATOM     11  O   UNL     1      16.409  14.686  41.414  0.00  0.00    +0.000 OA
ATOM     12  H   UNL     1      16.888  14.242  40.688  0.00  0.00    +0.000 HD
ENDBRANCH  10  11
ENDBRANCH   6  10
TORSDOF 3
ENDMDL
MODEL 19
REMARK VINA RESULT:    -3.455      2.694      3.183
REMARK INTER + INTRA:          -3.887
REMARK INTER:                  -3.863
REMARK INTRA:                  -0.024
REMARK UNBOUND:                -0.028
REMARK  Name = opt22.pdb
REMARK  3 active torsions:
REMARK  status: ('A' for Active; 'I' for Inactive)
REMARK    1  A    between atoms: C_3  and  O_5
REMARK    2  A    between atoms: C_7  and  C_9
REMARK    3  A    between atoms: C_9  and  O_10
REMARK                            x       y       z     vdW  Elec       q    Type
REMARK                         _______ _______ _______ _____ _____    ______ ____
ROOT
ATOM      1  O   UNL     1      15.369  12.314  42.994  0.00  0.00    +0.000 OA
ATOM      2  C   UNL     1      14.501  13.074  43.381  0.00  0.00    +0.000 A 
ATOM      3  C   UNL     1      13.506  12.720  44.398  0.00  0.00    +0.000 A 
ATOM      4  C   UNL     1      14.340  14.433  42.866  0.00  0.00    +0.000 A 
ATOM      5  C   UNL     1      12.539  13.613  44.803  0.00  0.00    +0.000 A 
ATOM      6  C   UNL     1      13.339  15.260  43.325  0.00  0.00    +0.000 A 
ATOM      7  O   UNL     1      12.421  14.904  44.301  0.00  0.00    +0.000 OA
ENDROOT
BRANCH   3   8
ATOM      8  O   UNL     1      13.615  11.464  44.887  0.00  0.00    +0.000 OA
ATOM      9  H   UNL     1      14.567  11.315  45.066  0.00  0.00    +0.000 HD
ENDBRANCH   3   8
BRANCH   6  10
ATOM     10  C   UNL     1      13.195  16.647  42.757  0.00  0.00    +0.000 C 
BRANCH  10  11
ATOM     11  O   UNL     1      13.985  16.792  41.576  0.00  0.00    +0.000 OA
ATOM     12  H   UNL     1      14.908  16.949  41.853  0.00  0.00    +0.000 HD
ENDBRANCH  10  11
ENDBRANCH   6  10
TORSDOF 3
ENDMDL
MODEL 20
REMARK VINA RESULT:    -3.420      2.030      4.367
REMARK INTER + INTRA:          -3.848
REMARK INTER:                  -3.824
REMARK INTRA:                  -0.024
REMARK UNBOUND:                -0.028
REMARK  Name = opt22.pdb
REMARK  3 active torsions:
REMARK  status: ('A' for Active; 'I' for Inactive)
REMARK    1  A    between atoms: C_3  and  O_5
REMARK    2  A    between atoms: C_7  and  C_9
REMARK    3  A    between atoms: C_9  and  O_10
REMARK                            x       y       z     vdW  Elec       q    Type
REMARK                         _______ _______ _______ _____ _____    ______ ____
ROOT
ATOM      1  O   UNL     1      10.349  14.719  44.443  0.00  0.00    +0.000 OA
ATOM      2  C   UNL     1      11.563  14.674  44.502  0.00  0.00    +0.000 A 
ATOM      3  C   UNL     1      12.416  15.862  44.611  0.00  0.00    +0.000 A 
ATOM      4  C   UNL     1      12.320  13.423  44.458  0.00  0.00    +0.000 A 
ATOM      5  C   UNL     1      13.789  15.761  44.671  0.00  0.00    +0.000 A 
ATOM      6  C   UNL     1      13.696  13.415  44.519  0.00  0.00    +0.000 A 
ATOM      7  O   UNL     1      14.477  14.555  44.639  0.00  0.00    +0.000 OA
ENDROOT
BRANCH   3   8
ATOM      8  O   UNL     1      11.751  17.038  44.639  0.00  0.00    +0.000 OA
ATOM      9  H   UNL     1      12.378  17.707  44.985  0.00  0.00    +0.000 HD
ENDBRANCH   3   8
BRANCH   6  10
ATOM     10  C   UNL     1      14.439  12.107  44.454  0.00  0.00    +0.000 C 
BRANCH  10  11
ATOM     11  O   UNL     1      13.534  11.008  44.552  0.00  0.00    +0.000 OA
ATOM     12  H   UNL     1      12.919  11.193  45.287  0.00  0.00    +0.000 HD
ENDBRANCH  10  11
ENDBRANCH   6  10
TORSDOF 3
ENDMDL
