MODEL 1
REMARK VINA RESULT:    -6.672      0.000      0.000
REMARK INTER + INTRA:         -11.452
REMARK INTER:                  -9.792
REMARK INTRA:                  -1.660
REMARK UNBOUND:                -1.660
REMARK  Name = opt85.pdb
REMARK  12 active torsions:
REMARK  status: ('A' for Active; 'I' for Inactive)
REMARK    1  A    between atoms: C_3  and  O_5
REMARK    2  A    between atoms: O_5  and  C_9
REMARK    3  A    between atoms: C_6  and  C_11
REMARK    4  A    between atoms: C_8  and  O_13
REMARK    5  A    between atoms: C_16  and  O_21
REMARK    6  A    between atoms: C_19  and  O_25
REMARK    7  A    between atoms: C_20  and  C_27
REMARK    8  A    between atoms: C_22  and  O_28
REMARK    9  A    between atoms: C_23  and  O_29
REMARK   10  A    between atoms: C_26  and  O_31
REMARK   11  A    between atoms: C_27  and  O_32
REMARK   12  A    between atoms: C_30  and  O_33
REMARK                            x       y       z     vdW  Elec       q    Type
REMARK                         _______ _______ _______ _____ _____    ______ ____
ROOT
ATOM      1  O   UNL     1      11.770  11.438  43.347  0.00  0.00    +0.000 OA
ATOM      2  C   UNL     1      12.072  12.608  43.188  0.00  0.00    +0.000 A 
ATOM      3  C   UNL     1      11.148  13.607  42.556  0.00  0.00    +0.000 A 
ATOM      4  C   UNL     1      13.337  13.160  43.705  0.00  0.00    +0.000 A 
ATOM      5  C   UNL     1      11.482  14.707  42.503  0.00  0.00    +0.000 A 
ATOM      6  C   UNL     1      13.500  14.510  43.501  0.00  0.00    +0.000 A 
ATOM      7  C   UNL     1      14.338  12.450  44.474  0.00  0.00    +0.000 A 
ATOM      8  O   UNL     1      12.468  15.160  42.835  0.00  0.00    +0.000 OA
ATOM      9  C   UNL     1      14.635  15.195  44.110  0.00  0.00    +0.000 A 
ATOM     10  C   UNL     1      15.398  13.119  45.064  0.00  0.00    +0.000 A 
ATOM     11  C   UNL     1      15.554  14.485  44.893  0.00  0.00    +0.000 A 
ENDROOT
BRANCH   5  12
ATOM     12  C   UNL     1      10.639  15.938  42.155  0.00  0.00    +0.000 A 
ATOM     13  C   UNL     1      10.244  16.177  40.824  0.00  0.00    +0.000 A 
ATOM     14  C   UNL     1      10.155  16.854  43.119  0.00  0.00    +0.000 A 
ATOM     15  C   UNL     1       9.258  17.078  40.479  0.00  0.00    +0.000 A 
ATOM     16  C   UNL     1       9.233  17.844  42.763  0.00  0.00    +0.000 A 
ATOM     17  C   UNL     1       8.742  17.913  41.459  0.00  0.00    +0.000 A 
BRANCH  17  18
ATOM     18  O   UNL     1       7.737  18.755  41.114  0.00  0.00    +0.000 OA
ATOM     19  H   UNL     1       7.594  18.583  40.159  0.00  0.00    +0.000 HD
ENDBRANCH  17  18
BRANCH  15  20
ATOM     20  O   UNL     1       8.779  17.112  39.187  0.00  0.00    +0.000 OA
ATOM     21  H   UNL     1       8.837  18.013  38.784  0.00  0.00    +0.000 HD
ENDBRANCH  15  20
ENDBRANCH   5  12
BRANCH  11  22
ATOM     22  O   UNL     1      16.634  15.044  45.532  0.00  0.00    +0.000 OA
ATOM     23  H   UNL     1      16.421  15.522  46.341  0.00  0.00    +0.000 HD
ENDBRANCH  11  22
BRANCH   7  24
ATOM     24  O   UNL     1      14.277  11.116  44.711  0.00  0.00    +0.000 OA
ATOM     25  H   UNL     1      14.514  10.680  43.881  0.00  0.00    +0.000 HD
ENDBRANCH   7  24
BRANCH   3  26
ATOM     26  O   UNL     1       9.865  13.053  42.392  0.00  0.00    +0.000 OA
BRANCH  26  27
ATOM     27  C   UNL     1       8.621  13.430  43.073  0.00  0.00    +0.000 C 
ATOM     28  O   UNL     1       7.731  14.267  42.313  0.00  0.00    +0.000 OA
ATOM     29  C   UNL     1       7.775  12.261  43.612  0.00  0.00    +0.000 C 
ATOM     30  C   UNL     1       7.146  13.745  41.115  0.00  0.00    +0.000 C 
ATOM     31  C   UNL     1       7.084  11.497  42.463  0.00  0.00    +0.000 C 
ATOM     32  C   UNL     1       6.396  12.419  41.418  0.00  0.00    +0.000 C 
BRANCH  29  33
ATOM     33  O   UNL     1       6.791  12.803  44.517  0.00  0.00    +0.000 OA
ATOM     34  H   UNL     1       5.919  12.866  44.075  0.00  0.00    +0.000 HD
ENDBRANCH  29  33
BRANCH  31  35
ATOM     35  O   UNL     1       6.122  10.577  43.015  0.00  0.00    +0.000 OA
ATOM     36  H   UNL     1       6.138  10.614  43.989  0.00  0.00    +0.000 HD
ENDBRANCH  31  35
BRANCH  32  37
ATOM     37  O   UNL     1       6.378  11.659  40.215  0.00  0.00    +0.000 OA
ATOM     38  H   UNL     1       6.408  10.732  40.457  0.00  0.00    +0.000 HD
ENDBRANCH  32  37
BRANCH  30  39
ATOM     39  C   UNL     1       6.267  14.923  40.645  0.00  0.00    +0.000 C 
BRANCH  39  40
ATOM     40  O   UNL     1       6.483  15.256  39.282  0.00  0.00    +0.000 OA
ATOM     41  H   UNL     1       7.321  14.818  39.032  0.00  0.00    +0.000 HD
ENDBRANCH  39  40
ENDBRANCH  30  39
ENDBRANCH  26  27
ENDBRANCH   3  26
TORSDOF 12
ENDMDL
MODEL 2
REMARK VINA RESULT:    -6.250      2.288      7.602
REMARK INTER + INTRA:         -10.832
REMARK INTER:                  -9.165
REMARK INTRA:                  -1.667
REMARK UNBOUND:                -1.660
REMARK  Name = opt85.pdb
REMARK  12 active torsions:
REMARK  status: ('A' for Active; 'I' for Inactive)
REMARK    1  A    between atoms: C_3  and  O_5
REMARK    2  A    between atoms: O_5  and  C_9
REMARK    3  A    between atoms: C_6  and  C_11
REMARK    4  A    between atoms: C_8  and  O_13
REMARK    5  A    between atoms: C_16  and  O_21
REMARK    6  A    between atoms: C_19  and  O_25
REMARK    7  A    between atoms: C_20  and  C_27
REMARK    8  A    between atoms: C_22  and  O_28
REMARK    9  A    between atoms: C_23  and  O_29
REMARK   10  A    between atoms: C_26  and  O_31
REMARK   11  A    between atoms: C_27  and  O_32
REMARK   12  A    between atoms: C_30  and  O_33
REMARK                            x       y       z     vdW  Elec       q    Type
REMARK                         _______ _______ _______ _____ _____    ______ ____
ROOT
ATOM      1  O   UNL     1       7.957  16.217  43.183  0.00  0.00    +0.000 OA
ATOM      2  C   UNL     1       8.501  15.127  43.164  0.00  0.00    +0.000 A 
ATOM      3  C   UNL     1       9.989  14.960  43.265  0.00  0.00    +0.000 A 
ATOM      4  C   UNL     1       7.727  13.874  43.149  0.00  0.00    +0.000 A 
ATOM      5  C   UNL     1      10.420  13.894  43.309  0.00  0.00    +0.000 A 
ATOM      6  C   UNL     1       8.486  12.729  43.195  0.00  0.00    +0.000 A 
ATOM      7  C   UNL     1       6.284  13.750  43.194  0.00  0.00    +0.000 A 
ATOM      8  O   UNL     1       9.864  12.907  43.241  0.00  0.00    +0.000 OA
ATOM      9  C   UNL     1       7.827  11.436  43.348  0.00  0.00    +0.000 A 
ATOM     10  C   UNL     1       5.674  12.518  43.361  0.00  0.00    +0.000 A 
ATOM     11  C   UNL     1       6.431  11.361  43.443  0.00  0.00    +0.000 A 
ENDROOT
BRANCH   5  12
ATOM     12  C   UNL     1      11.844  13.460  43.668  0.00  0.00    +0.000 A 
ATOM     13  C   UNL     1      12.689  12.907  42.686  0.00  0.00    +0.000 A 
ATOM     14  C   UNL     1      12.419  13.641  44.948  0.00  0.00    +0.000 A 
ATOM     15  C   UNL     1      14.052  12.770  42.851  0.00  0.00    +0.000 A 
ATOM     16  C   UNL     1      13.782  13.404  45.160  0.00  0.00    +0.000 A 
ATOM     17  C   UNL     1      14.604  13.029  44.097  0.00  0.00    +0.000 A 
BRANCH  17  18
ATOM     18  O   UNL     1      15.950  12.941  44.228  0.00  0.00    +0.000 OA
ATOM     19  H   UNL     1      16.253  12.571  43.371  0.00  0.00    +0.000 HD
ENDBRANCH  17  18
BRANCH  15  20
ATOM     20  O   UNL     1      14.842  12.416  41.779  0.00  0.00    +0.000 OA
ATOM     21  H   UNL     1      15.802  12.589  41.942  0.00  0.00    +0.000 HD
ENDBRANCH  15  20
ENDBRANCH   5  12
BRANCH  11  22
ATOM     22  O   UNL     1       5.722  10.197  43.619  0.00  0.00    +0.000 OA
ATOM     23  H   UNL     1       6.187   9.511  44.109  0.00  0.00    +0.000 HD
ENDBRANCH  11  22
BRANCH   7  24
ATOM     24  O   UNL     1       5.450  14.817  43.132  0.00  0.00    +0.000 OA
ATOM     25  H   UNL     1       5.447  15.109  42.209  0.00  0.00    +0.000 HD
ENDBRANCH   7  24
BRANCH   3  26
ATOM     26  O   UNL     1      10.599  16.184  43.592  0.00  0.00    +0.000 OA
BRANCH  26  27
ATOM     27  C   UNL     1      11.205  17.167  42.685  0.00  0.00    +0.000 C 
ATOM     28  O   UNL     1      11.684  18.370  43.310  0.00  0.00    +0.000 OA
ATOM     29  C   UNL     1      12.352  16.640  41.802  0.00  0.00    +0.000 C 
ATOM     30  C   UNL     1      12.763  18.280  44.247  0.00  0.00    +0.000 C 
ATOM     31  C   UNL     1      13.632  16.405  42.632  0.00  0.00    +0.000 C 
ATOM     32  C   UNL     1      13.984  17.575  43.592  0.00  0.00    +0.000 C 
BRANCH  29  33
ATOM     33  O   UNL     1      12.599  17.614  40.765  0.00  0.00    +0.000 OA
ATOM     34  H   UNL     1      12.482  18.521  41.116  0.00  0.00    +0.000 HD
ENDBRANCH  29  33
BRANCH  31  35
ATOM     35  O   UNL     1      14.735  16.150  41.742  0.00  0.00    +0.000 OA
ATOM     36  H   UNL     1      15.491  15.783  42.237  0.00  0.00    +0.000 HD
ENDBRANCH  31  35
BRANCH  32  37
ATOM     37  O   UNL     1      14.737  16.976  44.640  0.00  0.00    +0.000 OA
ATOM     38  H   UNL     1      14.696  16.025  44.520  0.00  0.00    +0.000 HD
ENDBRANCH  32  37
BRANCH  30  39
ATOM     39  C   UNL     1      12.972  19.757  44.642  0.00  0.00    +0.000 C 
BRANCH  39  40
ATOM     40  O   UNL     1      14.154  19.956  45.404  0.00  0.00    +0.000 OA
ATOM     41  H   UNL     1      14.888  19.640  44.839  0.00  0.00    +0.000 HD
ENDBRANCH  39  40
ENDBRANCH  30  39
ENDBRANCH  26  27
ENDBRANCH   3  26
TORSDOF 12
ENDMDL
MODEL 3
REMARK VINA RESULT:    -6.195      2.575      7.220
REMARK INTER + INTRA:         -10.751
REMARK INTER:                  -9.682
REMARK INTRA:                  -1.070
REMARK UNBOUND:                -1.660
REMARK  Name = opt85.pdb
REMARK  12 active torsions:
REMARK  status: ('A' for Active; 'I' for Inactive)
REMARK    1  A    between atoms: C_3  and  O_5
REMARK    2  A    between atoms: O_5  and  C_9
REMARK    3  A    between atoms: C_6  and  C_11
REMARK    4  A    between atoms: C_8  and  O_13
REMARK    5  A    between atoms: C_16  and  O_21
REMARK    6  A    between atoms: C_19  and  O_25
REMARK    7  A    between atoms: C_20  and  C_27
REMARK    8  A    between atoms: C_22  and  O_28
REMARK    9  A    between atoms: C_23  and  O_29
REMARK   10  A    between atoms: C_26  and  O_31
REMARK   11  A    between atoms: C_27  and  O_32
REMARK   12  A    between atoms: C_30  and  O_33
REMARK                            x       y       z     vdW  Elec       q    Type
REMARK                         _______ _______ _______ _____ _____    ______ ____
ROOT
ATOM      1  O   UNL     1      11.528  12.139  42.695  0.00  0.00    +0.000 OA
ATOM      2  C   UNL     1      11.095  13.132  43.254  0.00  0.00    +0.000 A 
ATOM      3  C   UNL     1      11.952  14.318  43.583  0.00  0.00    +0.000 A 
ATOM      4  C   UNL     1       9.662  13.287  43.556  0.00  0.00    +0.000 A 
ATOM      5  C   UNL     1      11.453  15.244  44.050  0.00  0.00    +0.000 A 
ATOM      6  C   UNL     1       9.323  14.490  44.130  0.00  0.00    +0.000 A 
ATOM      7  C   UNL     1       8.602  12.360  43.218  0.00  0.00    +0.000 A 
ATOM      8  O   UNL     1      10.368  15.380  44.352  0.00  0.00    +0.000 OA
ATOM      9  C   UNL     1       7.916  14.822  44.325  0.00  0.00    +0.000 A 
ATOM     10  C   UNL     1       7.270  12.698  43.389  0.00  0.00    +0.000 A 
ATOM     11  C   UNL     1       6.917  13.921  43.935  0.00  0.00    +0.000 A 
ENDROOT
BRANCH   5  12
ATOM     12  C   UNL     1      12.040  16.647  44.234  0.00  0.00    +0.000 A 
ATOM     13  C   UNL     1      13.114  16.859  45.120  0.00  0.00    +0.000 A 
ATOM     14  C   UNL     1      11.608  17.778  43.503  0.00  0.00    +0.000 A 
ATOM     15  C   UNL     1      13.878  18.008  45.121  0.00  0.00    +0.000 A 
ATOM     16  C   UNL     1      12.311  18.986  43.574  0.00  0.00    +0.000 A 
ATOM     17  C   UNL     1      13.477  19.078  44.334  0.00  0.00    +0.000 A 
BRANCH  17  18
ATOM     18  O   UNL     1      14.267  20.178  44.305  0.00  0.00    +0.000 OA
ATOM     19  H   UNL     1      14.516  20.273  43.361  0.00  0.00    +0.000 HD
ENDBRANCH  17  18
BRANCH  15  20
ATOM     20  O   UNL     1      15.035  18.064  45.866  0.00  0.00    +0.000 OA
ATOM     21  H   UNL     1      15.763  17.520  45.478  0.00  0.00    +0.000 HD
ENDBRANCH  15  20
ENDBRANCH   5  12
BRANCH  11  22
ATOM     22  O   UNL     1       5.567  14.154  44.048  0.00  0.00    +0.000 OA
ATOM     23  H   UNL     1       5.291  14.527  44.892  0.00  0.00    +0.000 HD
ENDBRANCH  11  22
BRANCH   7  24
ATOM     24  O   UNL     1       8.836  11.142  42.670  0.00  0.00    +0.000 OA
ATOM     25  H   UNL     1       8.741  10.497  43.385  0.00  0.00    +0.000 HD
ENDBRANCH   7  24
BRANCH   3  26
ATOM     26  O   UNL     1      13.214  14.196  42.973  0.00  0.00    +0.000 OA
BRANCH  26  27
ATOM     27  C   UNL     1      14.219  13.144  43.170  0.00  0.00    +0.000 C 
ATOM     28  O   UNL     1      15.414  13.276  42.381  0.00  0.00    +0.000 OA
ATOM     29  C   UNL     1      14.672  12.919  44.625  0.00  0.00    +0.000 C 
ATOM     30  C   UNL     1      16.268  14.404  42.604  0.00  0.00    +0.000 C 
ATOM     31  C   UNL     1      15.576  14.072  45.112  0.00  0.00    +0.000 C 
ATOM     32  C   UNL     1      16.685  14.473  44.099  0.00  0.00    +0.000 C 
BRANCH  29  33
ATOM     33  O   UNL     1      15.385  11.665  44.681  0.00  0.00    +0.000 OA
ATOM     34  H   UNL     1      16.004  11.592  43.925  0.00  0.00    +0.000 HD
ENDBRANCH  29  33
BRANCH  31  35
ATOM     35  O   UNL     1      16.170  13.711  46.373  0.00  0.00    +0.000 OA
ATOM     36  H   UNL     1      16.292  14.502  46.929  0.00  0.00    +0.000 HD
ENDBRANCH  31  35
BRANCH  32  37
ATOM     37  O   UNL     1      16.975  15.835  44.394  0.00  0.00    +0.000 OA
ATOM     38  H   UNL     1      16.374  16.377  43.879  0.00  0.00    +0.000 HD
ENDBRANCH  32  37
BRANCH  30  39
ATOM     39  C   UNL     1      17.410  14.147  41.599  0.00  0.00    +0.000 C 
BRANCH  39  40
ATOM     40  O   UNL     1      16.980  13.421  40.457  0.00  0.00    +0.000 OA
ATOM     41  H   UNL     1      16.589  12.594  40.802  0.00  0.00    +0.000 HD
ENDBRANCH  39  40
ENDBRANCH  30  39
ENDBRANCH  26  27
ENDBRANCH   3  26
TORSDOF 12
ENDMDL
MODEL 4
REMARK VINA RESULT:    -6.192      2.204      7.166
REMARK INTER + INTRA:         -10.748
REMARK INTER:                  -8.992
REMARK INTRA:                  -1.755
REMARK UNBOUND:                -1.660
REMARK  Name = opt85.pdb
REMARK  12 active torsions:
REMARK  status: ('A' for Active; 'I' for Inactive)
REMARK    1  A    between atoms: C_3  and  O_5
REMARK    2  A    between atoms: O_5  and  C_9
REMARK    3  A    between atoms: C_6  and  C_11
REMARK    4  A    between atoms: C_8  and  O_13
REMARK    5  A    between atoms: C_16  and  O_21
REMARK    6  A    between atoms: C_19  and  O_25
REMARK    7  A    between atoms: C_20  and  C_27
REMARK    8  A    between atoms: C_22  and  O_28
REMARK    9  A    between atoms: C_23  and  O_29
REMARK   10  A    between atoms: C_26  and  O_31
REMARK   11  A    between atoms: C_27  and  O_32
REMARK   12  A    between atoms: C_30  and  O_33
REMARK                            x       y       z     vdW  Elec       q    Type
REMARK                         _______ _______ _______ _____ _____    ______ ____
ROOT
ATOM      1  O   UNL     1      10.106  12.438  43.580  0.00  0.00    +0.000 OA
ATOM      2  C   UNL     1       9.871  13.627  43.454  0.00  0.00    +0.000 A 
ATOM      3  C   UNL     1      10.850  14.695  43.842  0.00  0.00    +0.000 A 
ATOM      4  C   UNL     1       8.638  14.109  42.805  0.00  0.00    +0.000 A 
ATOM      5  C   UNL     1      10.579  15.792  43.628  0.00  0.00    +0.000 A 
ATOM      6  C   UNL     1       8.551  15.475  42.681  0.00  0.00    +0.000 A 
ATOM      7  C   UNL     1       7.597  13.293  42.215  0.00  0.00    +0.000 A 
ATOM      8  O   UNL     1       9.620  16.207  43.186  0.00  0.00    +0.000 OA
ATOM      9  C   UNL     1       7.456  16.058  41.913  0.00  0.00    +0.000 A 
ATOM     10  C   UNL     1       6.576  13.860  41.470  0.00  0.00    +0.000 A 
ATOM     11  C   UNL     1       6.497  15.233  41.311  0.00  0.00    +0.000 A 
ENDROOT
BRANCH   5  12
ATOM     12  C   UNL     1      11.490  17.022  43.684  0.00  0.00    +0.000 A 
ATOM     13  C   UNL     1      12.173  17.348  44.872  0.00  0.00    +0.000 A 
ATOM     14  C   UNL     1      11.758  17.851  42.569  0.00  0.00    +0.000 A 
ATOM     15  C   UNL     1      13.221  18.246  44.920  0.00  0.00    +0.000 A 
ATOM     16  C   UNL     1      12.746  18.840  42.634  0.00  0.00    +0.000 A 
ATOM     17  C   UNL     1      13.515  18.991  43.788  0.00  0.00    +0.000 A 
BRANCH  17  18
ATOM     18  O   UNL     1      14.579  19.829  43.835  0.00  0.00    +0.000 OA
ATOM     19  H   UNL     1      15.273  19.312  44.297  0.00  0.00    +0.000 HD
ENDBRANCH  17  18
BRANCH  15  20
ATOM     20  O   UNL     1      13.975  18.361  46.067  0.00  0.00    +0.000 OA
ATOM     21  H   UNL     1      14.946  18.291  45.892  0.00  0.00    +0.000 HD
ENDBRANCH  15  20
ENDBRANCH   5  12
BRANCH  11  22
ATOM     22  O   UNL     1       5.450  15.684  40.544  0.00  0.00    +0.000 OA
ATOM     23  H   UNL     1       4.586  15.343  40.800  0.00  0.00    +0.000 HD
ENDBRANCH  11  22
BRANCH   7  24
ATOM     24  O   UNL     1       7.583  11.940  42.302  0.00  0.00    +0.000 OA
ATOM     25  H   UNL     1       8.500  11.649  42.204  0.00  0.00    +0.000 HD
ENDBRANCH   7  24
BRANCH   3  26
ATOM     26  O   UNL     1      12.100  14.126  44.148  0.00  0.00    +0.000 OA
BRANCH  26  27
ATOM     27  C   UNL     1      13.223  13.861  43.240  0.00  0.00    +0.000 C 
ATOM     28  O   UNL     1      14.315  14.793  43.321  0.00  0.00    +0.000 OA
ATOM     29  C   UNL     1      13.837  12.451  43.334  0.00  0.00    +0.000 C 
ATOM     30  C   UNL     1      15.064  14.876  44.538  0.00  0.00    +0.000 C 
ATOM     31  C   UNL     1      14.659  12.287  44.630  0.00  0.00    +0.000 C 
ATOM     32  C   UNL     1      15.616  13.475  44.924  0.00  0.00    +0.000 C 
BRANCH  29  33
ATOM     33  O   UNL     1      14.678  12.254  42.178  0.00  0.00    +0.000 OA
ATOM     34  H   UNL     1      15.496  12.788  42.257  0.00  0.00    +0.000 HD
ENDBRANCH  29  33
BRANCH  31  35
ATOM     35  O   UNL     1      15.408  11.058  44.565  0.00  0.00    +0.000 OA
ATOM     36  H   UNL     1      15.054  10.482  43.862  0.00  0.00    +0.000 HD
ENDBRANCH  31  35
BRANCH  32  37
ATOM     37  O   UNL     1      15.790  13.465  46.336  0.00  0.00    +0.000 OA
ATOM     38  H   UNL     1      16.715  13.642  46.516  0.00  0.00    +0.000 HD
ENDBRANCH  32  37
BRANCH  30  39
ATOM     39  C   UNL     1      16.123  15.944  44.193  0.00  0.00    +0.000 C 
BRANCH  39  40
ATOM     40  O   UNL     1      16.385  16.824  45.276  0.00  0.00    +0.000 OA
ATOM     41  H   UNL     1      16.945  16.317  45.899  0.00  0.00    +0.000 HD
ENDBRANCH  39  40
ENDBRANCH  30  39
ENDBRANCH  26  27
ENDBRANCH   3  26
TORSDOF 12
ENDMDL
MODEL 5
REMARK VINA RESULT:    -6.192      2.408      7.599
REMARK INTER + INTRA:         -10.747
REMARK INTER:                  -9.369
REMARK INTRA:                  -1.378
REMARK UNBOUND:                -1.660
REMARK  Name = opt85.pdb
REMARK  12 active torsions:
REMARK  status: ('A' for Active; 'I' for Inactive)
REMARK    1  A    between atoms: C_3  and  O_5
REMARK    2  A    between atoms: O_5  and  C_9
REMARK    3  A    between atoms: C_6  and  C_11
REMARK    4  A    between atoms: C_8  and  O_13
REMARK    5  A    between atoms: C_16  and  O_21
REMARK    6  A    between atoms: C_19  and  O_25
REMARK    7  A    between atoms: C_20  and  C_27
REMARK    8  A    between atoms: C_22  and  O_28
REMARK    9  A    between atoms: C_23  and  O_29
REMARK   10  A    between atoms: C_26  and  O_31
REMARK   11  A    between atoms: C_27  and  O_32
REMARK   12  A    between atoms: C_30  and  O_33
REMARK                            x       y       z     vdW  Elec       q    Type
REMARK                         _______ _______ _______ _____ _____    ______ ____
ROOT
ATOM      1  O   UNL     1      13.927  17.932  43.922  0.00  0.00    +0.000 OA
ATOM      2  C   UNL     1      12.791  17.610  43.621  0.00  0.00    +0.000 A 
ATOM      3  C   UNL     1      12.372  16.182  43.436  0.00  0.00    +0.000 A 
ATOM      4  C   UNL     1      11.706  18.602  43.520  0.00  0.00    +0.000 A 
ATOM      5  C   UNL     1      11.265  15.957  43.219  0.00  0.00    +0.000 A 
ATOM      6  C   UNL     1      10.469  18.073  43.235  0.00  0.00    +0.000 A 
ATOM      7  C   UNL     1      11.806  20.022  43.788  0.00  0.00    +0.000 A 
ATOM      8  O   UNL     1      10.413  16.694  43.075  0.00  0.00    +0.000 OA
ATOM      9  C   UNL     1       9.293  18.937  43.270  0.00  0.00    +0.000 A 
ATOM     10  C   UNL     1      10.678  20.824  43.839  0.00  0.00    +0.000 A 
ATOM     11  C   UNL     1       9.423  20.295  43.587  0.00  0.00    +0.000 A 
ENDROOT
BRANCH   5  12
ATOM     12  C   UNL     1      10.547  14.604  43.249  0.00  0.00    +0.000 A 
ATOM     13  C   UNL     1       9.474  14.388  44.136  0.00  0.00    +0.000 A 
ATOM     14  C   UNL     1      10.852  13.536  42.373  0.00  0.00    +0.000 A 
ATOM     15  C   UNL     1       8.601  13.325  44.021  0.00  0.00    +0.000 A 
ATOM     16  C   UNL     1      10.035  12.401  42.320  0.00  0.00    +0.000 A 
ATOM     17  C   UNL     1       8.880  12.327  43.098  0.00  0.00    +0.000 A 
BRANCH  17  18
ATOM     18  O   UNL     1       7.986  11.319  42.961  0.00  0.00    +0.000 OA
ATOM     19  H   UNL     1       8.282  10.643  43.608  0.00  0.00    +0.000 HD
ENDBRANCH  17  18
BRANCH  15  20
ATOM     20  O   UNL     1       7.458  13.288  44.789  0.00  0.00    +0.000 OA
ATOM     21  H   UNL     1       7.626  12.947  45.702  0.00  0.00    +0.000 HD
ENDBRANCH  15  20
ENDBRANCH   5  12
BRANCH  11  22
ATOM     22  O   UNL     1       8.376  21.180  43.676  0.00  0.00    +0.000 OA
ATOM     23  H   UNL     1       7.608  20.851  44.157  0.00  0.00    +0.000 HD
ENDBRANCH  11  22
BRANCH   7  24
ATOM     24  O   UNL     1      12.982  20.640  44.056  0.00  0.00    +0.000 OA
ATOM     25  H   UNL     1      13.217  20.400  44.963  0.00  0.00    +0.000 HD
ENDBRANCH   7  24
BRANCH   3  26
ATOM     26  O   UNL     1      13.393  15.312  43.863  0.00  0.00    +0.000 OA
BRANCH  26  27
ATOM     27  C   UNL     1      14.366  14.583  43.040  0.00  0.00    +0.000 C 
ATOM     28  O   UNL     1      15.733  15.005  43.181  0.00  0.00    +0.000 OA
ATOM     29  C   UNL     1      14.358  13.051  43.200  0.00  0.00    +0.000 C 
ATOM     30  C   UNL     1      16.382  14.836  44.446  0.00  0.00    +0.000 C 
ATOM     31  C   UNL     1      14.970  12.629  44.553  0.00  0.00    +0.000 C 
ATOM     32  C   UNL     1      16.304  13.350  44.893  0.00  0.00    +0.000 C 
BRANCH  29  33
ATOM     33  O   UNL     1      15.115  12.485  42.109  0.00  0.00    +0.000 OA
ATOM     34  H   UNL     1      14.679  12.682  41.254  0.00  0.00    +0.000 HD
ENDBRANCH  29  33
BRANCH  31  35
ATOM     35  O   UNL     1      15.167  11.202  44.561  0.00  0.00    +0.000 OA
ATOM     36  H   UNL     1      14.627  10.781  43.866  0.00  0.00    +0.000 HD
ENDBRANCH  31  35
BRANCH  32  37
ATOM     37  O   UNL     1      16.378  13.332  46.314  0.00  0.00    +0.000 OA
ATOM     38  H   UNL     1      15.986  12.510  46.615  0.00  0.00    +0.000 HD
ENDBRANCH  32  37
BRANCH  30  39
ATOM     39  C   UNL     1      17.798  15.378  44.158  0.00  0.00    +0.000 C 
BRANCH  39  40
ATOM     40  O   UNL     1      18.819  14.538  44.676  0.00  0.00    +0.000 OA
ATOM     41  H   UNL     1      19.054  14.915  45.548  0.00  0.00    +0.000 HD
ENDBRANCH  39  40
ENDBRANCH  30  39
ENDBRANCH  26  27
ENDBRANCH   3  26
TORSDOF 12
ENDMDL
MODEL 6
REMARK VINA RESULT:    -6.145      1.176      2.452
REMARK INTER + INTRA:         -10.678
REMARK INTER:                  -9.193
REMARK INTRA:                  -1.484
REMARK UNBOUND:                -1.660
REMARK  Name = opt85.pdb
REMARK  12 active torsions:
REMARK  status: ('A' for Active; 'I' for Inactive)
REMARK    1  A    between atoms: C_3  and  O_5
REMARK    2  A    between atoms: O_5  and  C_9
REMARK    3  A    between atoms: C_6  and  C_11
REMARK    4  A    between atoms: C_8  and  O_13
REMARK    5  A    between atoms: C_16  and  O_21
REMARK    6  A    between atoms: C_19  and  O_25
REMARK    7  A    between atoms: C_20  and  C_27
REMARK    8  A    between atoms: C_22  and  O_28
REMARK    9  A    between atoms: C_23  and  O_29
REMARK   10  A    between atoms: C_26  and  O_31
REMARK   11  A    between atoms: C_27  and  O_32
REMARK   12  A    between atoms: C_30  and  O_33
REMARK                            x       y       z     vdW  Elec       q    Type
REMARK                         _______ _______ _______ _____ _____    ______ ____
ROOT
ATOM      1  O   UNL     1      11.760  11.618  43.538  0.00  0.00    +0.000 OA
ATOM      2  C   UNL     1      11.963  12.794  43.290  0.00  0.00    +0.000 A 
ATOM      3  C   UNL     1      10.864  13.750  42.928  0.00  0.00    +0.000 A 
ATOM      4  C   UNL     1      13.299  13.398  43.432  0.00  0.00    +0.000 A 
ATOM      5  C   UNL     1      11.128  14.859  42.774  0.00  0.00    +0.000 A 
ATOM      6  C   UNL     1      13.350  14.748  43.178  0.00  0.00    +0.000 A 
ATOM      7  C   UNL     1      14.500  12.737  43.902  0.00  0.00    +0.000 A 
ATOM      8  O   UNL     1      12.150  15.350  42.817  0.00  0.00    +0.000 OA
ATOM      9  C   UNL     1      14.582  15.483  43.443  0.00  0.00    +0.000 A 
ATOM     10  C   UNL     1      15.655  13.452  44.169  0.00  0.00    +0.000 A 
ATOM     11  C   UNL     1      15.707  14.818  43.948  0.00  0.00    +0.000 A 
ENDROOT
BRANCH   5  12
ATOM     12  C   UNL     1      10.177  16.054  42.661  0.00  0.00    +0.000 A 
ATOM     13  C   UNL     1       9.913  16.636  41.406  0.00  0.00    +0.000 A 
ATOM     14  C   UNL     1       9.467  16.598  43.758  0.00  0.00    +0.000 A 
ATOM     15  C   UNL     1       8.863  17.504  41.181  0.00  0.00    +0.000 A 
ATOM     16  C   UNL     1       8.471  17.559  43.558  0.00  0.00    +0.000 A 
ATOM     17  C   UNL     1       8.131  17.962  42.266  0.00  0.00    +0.000 A 
BRANCH  17  18
ATOM     18  O   UNL     1       7.071  18.771  42.023  0.00  0.00    +0.000 OA
ATOM     19  H   UNL     1       7.025  19.352  42.812  0.00  0.00    +0.000 HD
ENDBRANCH  17  18
BRANCH  15  20
ATOM     20  O   UNL     1       8.538  17.871  39.894  0.00  0.00    +0.000 OA
ATOM     21  H   UNL     1       9.283  18.327  39.429  0.00  0.00    +0.000 HD
ENDBRANCH  15  20
ENDBRANCH   5  12
BRANCH  11  22
ATOM     22  O   UNL     1      16.900  15.426  44.259  0.00  0.00    +0.000 OA
ATOM     23  H   UNL     1      17.488  15.567  43.509  0.00  0.00    +0.000 HD
ENDBRANCH  11  22
BRANCH   7  24
ATOM     24  O   UNL     1      14.556  11.407  44.159  0.00  0.00    +0.000 OA
ATOM     25  H   UNL     1      14.536  11.313  45.121  0.00  0.00    +0.000 HD
ENDBRANCH   7  24
BRANCH   3  26
ATOM     26  O   UNL     1       9.607  13.150  43.130  0.00  0.00    +0.000 OA
BRANCH  26  27
ATOM     27  C   UNL     1       8.611  12.770  42.121  0.00  0.00    +0.000 C 
ATOM     28  O   UNL     1       7.880  11.563  42.400  0.00  0.00    +0.000 OA
ATOM     29  C   UNL     1       7.566  13.849  41.776  0.00  0.00    +0.000 C 
ATOM     30  C   UNL     1       7.022  11.523  43.546  0.00  0.00    +0.000 C 
ATOM     31  C   UNL     1       6.548  14.026  42.922  0.00  0.00    +0.000 C 
ATOM     32  C   UNL     1       5.995  12.687  43.486  0.00  0.00    +0.000 C 
BRANCH  29  33
ATOM     33  O   UNL     1       6.892  13.445  40.565  0.00  0.00    +0.000 OA
ATOM     34  H   UNL     1       6.387  14.196  40.190  0.00  0.00    +0.000 HD
ENDBRANCH  29  33
BRANCH  31  35
ATOM     35  O   UNL     1       5.461  14.855  42.469  0.00  0.00    +0.000 OA
ATOM     36  H   UNL     1       5.642  15.792  42.670  0.00  0.00    +0.000 HD
ENDBRANCH  31  35
BRANCH  32  37
ATOM     37  O   UNL     1       5.614  12.983  44.825  0.00  0.00    +0.000 OA
ATOM     38  H   UNL     1       4.753  13.404  44.795  0.00  0.00    +0.000 HD
ENDBRANCH  32  37
BRANCH  30  39
ATOM     39  C   UNL     1       6.431  10.100  43.457  0.00  0.00    +0.000 C 
BRANCH  39  40
ATOM     40  O   UNL     1       5.451   9.853  44.454  0.00  0.00    +0.000 OA
ATOM     41  H   UNL     1       5.936   9.838  45.304  0.00  0.00    +0.000 HD
ENDBRANCH  39  40
ENDBRANCH  30  39
ENDBRANCH  26  27
ENDBRANCH   3  26
TORSDOF 12
ENDMDL
MODEL 7
REMARK VINA RESULT:    -6.078      2.363      7.517
REMARK INTER + INTRA:         -10.580
REMARK INTER:                  -8.753
REMARK INTRA:                  -1.826
REMARK UNBOUND:                -1.660
REMARK  Name = opt85.pdb
REMARK  12 active torsions:
REMARK  status: ('A' for Active; 'I' for Inactive)
REMARK    1  A    between atoms: C_3  and  O_5
REMARK    2  A    between atoms: O_5  and  C_9
REMARK    3  A    between atoms: C_6  and  C_11
REMARK    4  A    between atoms: C_8  and  O_13
REMARK    5  A    between atoms: C_16  and  O_21
REMARK    6  A    between atoms: C_19  and  O_25
REMARK    7  A    between atoms: C_20  and  C_27
REMARK    8  A    between atoms: C_22  and  O_28
REMARK    9  A    between atoms: C_23  and  O_29
REMARK   10  A    between atoms: C_26  and  O_31
REMARK   11  A    between atoms: C_27  and  O_32
REMARK   12  A    between atoms: C_30  and  O_33
REMARK                            x       y       z     vdW  Elec       q    Type
REMARK                         _______ _______ _______ _____ _____    ______ ____
ROOT
ATOM      1  O   UNL     1      10.063  13.756  43.836  0.00  0.00    +0.000 OA
ATOM      2  C   UNL     1      10.142  14.972  43.831  0.00  0.00    +0.000 A 
ATOM      3  C   UNL     1      11.393  15.707  44.214  0.00  0.00    +0.000 A 
ATOM      4  C   UNL     1       9.040  15.819  43.343  0.00  0.00    +0.000 A 
ATOM      5  C   UNL     1      11.408  16.853  44.119  0.00  0.00    +0.000 A 
ATOM      6  C   UNL     1       9.308  17.167  43.341  0.00  0.00    +0.000 A 
ATOM      7  C   UNL     1       7.782  15.364  42.785  0.00  0.00    +0.000 A 
ATOM      8  O   UNL     1      10.564  17.544  43.804  0.00  0.00    +0.000 OA
ATOM      9  C   UNL     1       8.356  18.089  42.730  0.00  0.00    +0.000 A 
ATOM     10  C   UNL     1       6.900  16.248  42.189  0.00  0.00    +0.000 A 
ATOM     11  C   UNL     1       7.176  17.605  42.152  0.00  0.00    +0.000 A 
ENDROOT
BRANCH   5  12
ATOM     12  C   UNL     1      12.613  17.796  44.192  0.00  0.00    +0.000 A 
ATOM     13  C   UNL     1      13.339  17.930  45.391  0.00  0.00    +0.000 A 
ATOM     14  C   UNL     1      13.109  18.521  43.083  0.00  0.00    +0.000 A 
ATOM     15  C   UNL     1      14.588  18.515  45.458  0.00  0.00    +0.000 A 
ATOM     16  C   UNL     1      14.324  19.211  43.166  0.00  0.00    +0.000 A 
ATOM     17  C   UNL     1      15.087  19.153  44.333  0.00  0.00    +0.000 A 
BRANCH  17  18
ATOM     18  O   UNL     1      16.336  19.676  44.399  0.00  0.00    +0.000 OA
ATOM     19  H   UNL     1      16.315  20.432  43.774  0.00  0.00    +0.000 HD
ENDBRANCH  17  18
BRANCH  15  20
ATOM     20  O   UNL     1      15.327  18.427  46.617  0.00  0.00    +0.000 OA
ATOM     21  H   UNL     1      15.180  17.576  47.098  0.00  0.00    +0.000 HD
ENDBRANCH  15  20
ENDBRANCH   5  12
BRANCH  11  22
ATOM     22  O   UNL     1       6.235  18.386  41.526  0.00  0.00    +0.000 OA
ATOM     23  H   UNL     1       5.715  18.943  42.116  0.00  0.00    +0.000 HD
ENDBRANCH  11  22
BRANCH   7  24
ATOM     24  O   UNL     1       7.417  14.058  42.761  0.00  0.00    +0.000 OA
ATOM     25  H   UNL     1       8.224  13.551  42.592  0.00  0.00    +0.000 HD
ENDBRANCH   7  24
BRANCH   3  26
ATOM     26  O   UNL     1      12.466  14.808  44.355  0.00  0.00    +0.000 OA
BRANCH  26  27
ATOM     27  C   UNL     1      13.401  14.343  43.323  0.00  0.00    +0.000 C 
ATOM     28  O   UNL     1      14.666  15.027  43.284  0.00  0.00    +0.000 OA
ATOM     29  C   UNL     1      13.714  12.835  43.338  0.00  0.00    +0.000 C 
ATOM     30  C   UNL     1      15.546  14.917  44.408  0.00  0.00    +0.000 C 
ATOM     31  C   UNL     1      14.622  12.466  44.530  0.00  0.00    +0.000 C 
ATOM     32  C   UNL     1      15.833  13.422  44.720  0.00  0.00    +0.000 C 
BRANCH  29  33
ATOM     33  O   UNL     1      14.363  12.502  42.092  0.00  0.00    +0.000 OA
ATOM     34  H   UNL     1      15.209  12.038  42.262  0.00  0.00    +0.000 HD
ENDBRANCH  29  33
BRANCH  31  35
ATOM     35  O   UNL     1      15.086  11.111  44.373  0.00  0.00    +0.000 OA
ATOM     36  H   UNL     1      14.912  10.796  43.466  0.00  0.00    +0.000 HD
ENDBRANCH  31  35
BRANCH  32  37
ATOM     37  O   UNL     1      16.156  13.334  46.102  0.00  0.00    +0.000 OA
ATOM     38  H   UNL     1      16.311  14.225  46.421  0.00  0.00    +0.000 HD
ENDBRANCH  32  37
BRANCH  30  39
ATOM     39  C   UNL     1      16.760  15.753  43.950  0.00  0.00    +0.000 C 
BRANCH  39  40
ATOM     40  O   UNL     1      17.273  16.581  44.983  0.00  0.00    +0.000 OA
ATOM     41  H   UNL     1      17.977  17.118  44.565  0.00  0.00    +0.000 HD
ENDBRANCH  39  40
ENDBRANCH  30  39
ENDBRANCH  26  27
ENDBRANCH   3  26
TORSDOF 12
ENDMDL
MODEL 8
REMARK VINA RESULT:    -6.056      2.161      5.514
REMARK INTER + INTRA:         -10.548
REMARK INTER:                  -9.892
REMARK INTRA:                  -0.656
REMARK UNBOUND:                -1.660
REMARK  Name = opt85.pdb
REMARK  12 active torsions:
REMARK  status: ('A' for Active; 'I' for Inactive)
REMARK    1  A    between atoms: C_3  and  O_5
REMARK    2  A    between atoms: O_5  and  C_9
REMARK    3  A    between atoms: C_6  and  C_11
REMARK    4  A    between atoms: C_8  and  O_13
REMARK    5  A    between atoms: C_16  and  O_21
REMARK    6  A    between atoms: C_19  and  O_25
REMARK    7  A    between atoms: C_20  and  C_27
REMARK    8  A    between atoms: C_22  and  O_28
REMARK    9  A    between atoms: C_23  and  O_29
REMARK   10  A    between atoms: C_26  and  O_31
REMARK   11  A    between atoms: C_27  and  O_32
REMARK   12  A    between atoms: C_30  and  O_33
REMARK                            x       y       z     vdW  Elec       q    Type
REMARK                         _______ _______ _______ _____ _____    ______ ____
ROOT
ATOM      1  O   UNL     1       8.683  16.846  42.895  0.00  0.00    +0.000 OA
ATOM      2  C   UNL     1       9.809  16.651  43.317  0.00  0.00    +0.000 A 
ATOM      3  C   UNL     1      10.389  15.277  43.482  0.00  0.00    +0.000 A 
ATOM      4  C   UNL     1      10.735  17.762  43.599  0.00  0.00    +0.000 A 
ATOM      5  C   UNL     1      11.484  15.179  43.822  0.00  0.00    +0.000 A 
ATOM      6  C   UNL     1      11.990  17.375  44.006  0.00  0.00    +0.000 A 
ATOM      7  C   UNL     1      10.480  19.173  43.390  0.00  0.00    +0.000 A 
ATOM      8  O   UNL     1      12.209  16.006  44.104  0.00  0.00    +0.000 OA
ATOM      9  C   UNL     1      13.037  18.380  44.157  0.00  0.00    +0.000 A 
ATOM     10  C   UNL     1      11.490  20.111  43.516  0.00  0.00    +0.000 A 
ATOM     11  C   UNL     1      12.767  19.728  43.894  0.00  0.00    +0.000 A 
ENDROOT
BRANCH   5  12
ATOM     12  C   UNL     1      12.372  13.932  43.814  0.00  0.00    +0.000 A 
ATOM     13  C   UNL     1      13.685  13.991  44.321  0.00  0.00    +0.000 A 
ATOM     14  C   UNL     1      11.933  12.660  43.378  0.00  0.00    +0.000 A 
ATOM     15  C   UNL     1      14.432  12.868  44.619  0.00  0.00    +0.000 A 
ATOM     16  C   UNL     1      12.726  11.523  43.576  0.00  0.00    +0.000 A 
ATOM     17  C   UNL     1      13.943  11.624  44.251  0.00  0.00    +0.000 A 
BRANCH  17  18
ATOM     18  O   UNL     1      14.663  10.529  44.597  0.00  0.00    +0.000 OA
ATOM     19  H   UNL     1      14.024   9.787  44.527  0.00  0.00    +0.000 HD
ENDBRANCH  17  18
BRANCH  15  20
ATOM     20  O   UNL     1      15.621  12.995  45.302  0.00  0.00    +0.000 OA
ATOM     21  H   UNL     1      15.494  13.302  46.233  0.00  0.00    +0.000 HD
ENDBRANCH  15  20
ENDBRANCH   5  12
BRANCH  11  22
ATOM     22  O   UNL     1      13.691  20.741  43.977  0.00  0.00    +0.000 OA
ATOM     23  H   UNL     1      13.760  21.155  44.844  0.00  0.00    +0.000 HD
ENDBRANCH  11  22
BRANCH   7  24
ATOM     24  O   UNL     1       9.271  19.654  43.010  0.00  0.00    +0.000 OA
ATOM     25  H   UNL     1       8.820  19.932  43.820  0.00  0.00    +0.000 HD
ENDBRANCH   7  24
BRANCH   3  26
ATOM     26  O   UNL     1       9.548  14.316  42.892  0.00  0.00    +0.000 OA
BRANCH  26  27
ATOM     27  C   UNL     1       8.725  13.299  43.558  0.00  0.00    +0.000 C 
ATOM     28  O   UNL     1       7.579  13.800  44.268  0.00  0.00    +0.000 OA
ATOM     29  C   UNL     1       8.222  12.154  42.659  0.00  0.00    +0.000 C 
ATOM     30  C   UNL     1       6.534  14.442  43.528  0.00  0.00    +0.000 C 
ATOM     31  C   UNL     1       7.106  12.641  41.709  0.00  0.00    +0.000 C 
ATOM     32  C   UNL     1       6.014  13.498  42.408  0.00  0.00    +0.000 C 
BRANCH  29  33
ATOM     33  O   UNL     1       7.729  11.100  43.513  0.00  0.00    +0.000 OA
ATOM     34  H   UNL     1       7.955  11.285  44.448  0.00  0.00    +0.000 HD
ENDBRANCH  29  33
BRANCH  31  35
ATOM     35  O   UNL     1       6.500  11.504  41.065  0.00  0.00    +0.000 OA
ATOM     36  H   UNL     1       5.731  11.194  41.578  0.00  0.00    +0.000 HD
ENDBRANCH  31  35
BRANCH  32  37
ATOM     37  O   UNL     1       5.480  14.321  41.378  0.00  0.00    +0.000 OA
ATOM     38  H   UNL     1       4.532  14.379  41.515  0.00  0.00    +0.000 HD
ENDBRANCH  32  37
BRANCH  30  39
ATOM     39  C   UNL     1       5.520  14.790  44.638  0.00  0.00    +0.000 C 
BRANCH  39  40
ATOM     40  O   UNL     1       5.450  13.794  45.647  0.00  0.00    +0.000 OA
ATOM     41  H   UNL     1       5.153  14.258  46.456  0.00  0.00    +0.000 HD
ENDBRANCH  39  40
ENDBRANCH  30  39
ENDBRANCH  26  27
ENDBRANCH   3  26
TORSDOF 12
ENDMDL
MODEL 9
REMARK VINA RESULT:    -6.020      1.971      3.075
REMARK INTER + INTRA:         -10.494
REMARK INTER:                  -9.010
REMARK INTRA:                  -1.484
REMARK UNBOUND:                -1.660
REMARK  Name = opt85.pdb
REMARK  12 active torsions:
REMARK  status: ('A' for Active; 'I' for Inactive)
REMARK    1  A    between atoms: C_3  and  O_5
REMARK    2  A    between atoms: O_5  and  C_9
REMARK    3  A    between atoms: C_6  and  C_11
REMARK    4  A    between atoms: C_8  and  O_13
REMARK    5  A    between atoms: C_16  and  O_21
REMARK    6  A    between atoms: C_19  and  O_25
REMARK    7  A    between atoms: C_20  and  C_27
REMARK    8  A    between atoms: C_22  and  O_28
REMARK    9  A    between atoms: C_23  and  O_29
REMARK   10  A    between atoms: C_26  and  O_31
REMARK   11  A    between atoms: C_27  and  O_32
REMARK   12  A    between atoms: C_30  and  O_33
REMARK                            x       y       z     vdW  Elec       q    Type
REMARK                         _______ _______ _______ _____ _____    ______ ____
ROOT
ATOM      1  O   UNL     1      13.765  13.435  45.589  0.00  0.00    +0.000 OA
ATOM      2  C   UNL     1      14.043  14.277  44.754  0.00  0.00    +0.000 A 
ATOM      3  C   UNL     1      13.022  14.878  43.834  0.00  0.00    +0.000 A 
ATOM      4  C   UNL     1      15.395  14.853  44.655  0.00  0.00    +0.000 A 
ATOM      5  C   UNL     1      13.352  15.717  43.119  0.00  0.00    +0.000 A 
ATOM      6  C   UNL     1      15.532  15.839  43.705  0.00  0.00    +0.000 A 
ATOM      7  C   UNL     1      16.526  14.557  45.511  0.00  0.00    +0.000 A 
ATOM      8  O   UNL     1      14.392  16.146  42.971  0.00  0.00    +0.000 OA
ATOM      9  C   UNL     1      16.779  16.592  43.627  0.00  0.00    +0.000 A 
ATOM     10  C   UNL     1      17.694  15.296  45.439  0.00  0.00    +0.000 A 
ATOM     11  C   UNL     1      17.831  16.313  44.509  0.00  0.00    +0.000 A 
ENDROOT
BRANCH   5  12
ATOM     12  C   UNL     1      12.473  16.655  42.286  0.00  0.00    +0.000 A 
ATOM     13  C   UNL     1      11.896  16.207  41.082  0.00  0.00    +0.000 A 
ATOM     14  C   UNL     1      12.132  17.969  42.685  0.00  0.00    +0.000 A 
ATOM     15  C   UNL     1      10.874  16.875  40.439  0.00  0.00    +0.000 A 
ATOM     16  C   UNL     1      11.172  18.703  41.979  0.00  0.00    +0.000 A 
ATOM     17  C   UNL     1      10.503  18.130  40.897  0.00  0.00    +0.000 A 
BRANCH  17  18
ATOM     18  O   UNL     1       9.463  18.749  40.288  0.00  0.00    +0.000 OA
ATOM     19  H   UNL     1       8.802  18.872  41.002  0.00  0.00    +0.000 HD
ENDBRANCH  17  18
BRANCH  15  20
ATOM     20  O   UNL     1      10.219  16.277  39.384  0.00  0.00    +0.000 OA
ATOM     21  H   UNL     1      10.280  16.805  38.551  0.00  0.00    +0.000 HD
ENDBRANCH  15  20
ENDBRANCH   5  12
BRANCH  11  22
ATOM     22  O   UNL     1      19.028  16.986  44.535  0.00  0.00    +0.000 OA
ATOM     23  H   UNL     1      18.952  17.946  44.534  0.00  0.00    +0.000 HD
ENDBRANCH  11  22
BRANCH   7  24
ATOM     24  O   UNL     1      16.496  13.589  46.461  0.00  0.00    +0.000 OA
ATOM     25  H   UNL     1      16.666  14.030  47.305  0.00  0.00    +0.000 HD
ENDBRANCH   7  24
BRANCH   3  26
ATOM     26  O   UNL     1      11.725  14.496  44.223  0.00  0.00    +0.000 OA
BRANCH  26  27
ATOM     27  C   UNL     1      11.122  13.158  44.178  0.00  0.00    +0.000 C 
ATOM     28  O   UNL     1       9.707  13.110  44.433  0.00  0.00    +0.000 OA
ATOM     29  C   UNL     1      11.364  12.361  42.882  0.00  0.00    +0.000 C 
ATOM     30  C   UNL     1       8.817  13.756  43.517  0.00  0.00    +0.000 C 
ATOM     31  C   UNL     1      10.533  12.932  41.713  0.00  0.00    +0.000 C 
ATOM     32  C   UNL     1       9.050  13.221  42.077  0.00  0.00    +0.000 C 
BRANCH  29  33
ATOM     33  O   UNL     1      11.002  10.986  43.130  0.00  0.00    +0.000 OA
ATOM     34  H   UNL     1      11.428  10.665  43.952  0.00  0.00    +0.000 HD
ENDBRANCH  29  33
BRANCH  31  35
ATOM     35  O   UNL     1      10.598  12.025  40.596  0.00  0.00    +0.000 OA
ATOM     36  H   UNL     1      11.504  11.995  40.236  0.00  0.00    +0.000 HD
ENDBRANCH  31  35
BRANCH  32  37
ATOM     37  O   UNL     1       8.645  14.244  41.176  0.00  0.00    +0.000 OA
ATOM     38  H   UNL     1       7.822  14.610  41.504  0.00  0.00    +0.000 HD
ENDBRANCH  32  37
BRANCH  30  39
ATOM     39  C   UNL     1       7.437  13.446  44.134  0.00  0.00    +0.000 C 
BRANCH  39  40
ATOM     40  O   UNL     1       6.435  13.232  43.151  0.00  0.00    +0.000 OA
ATOM     41  H   UNL     1       5.709  12.764  43.611  0.00  0.00    +0.000 HD
ENDBRANCH  39  40
ENDBRANCH  30  39
ENDBRANCH  26  27
ENDBRANCH   3  26
TORSDOF 12
ENDMDL
MODEL 10
REMARK VINA RESULT:    -5.976      2.054      7.595
REMARK INTER + INTRA:         -10.430
REMARK INTER:                  -8.665
REMARK INTRA:                  -1.765
REMARK UNBOUND:                -1.660
REMARK  Name = opt85.pdb
REMARK  12 active torsions:
REMARK  status: ('A' for Active; 'I' for Inactive)
REMARK    1  A    between atoms: C_3  and  O_5
REMARK    2  A    between atoms: O_5  and  C_9
REMARK    3  A    between atoms: C_6  and  C_11
REMARK    4  A    between atoms: C_8  and  O_13
REMARK    5  A    between atoms: C_16  and  O_21
REMARK    6  A    between atoms: C_19  and  O_25
REMARK    7  A    between atoms: C_20  and  C_27
REMARK    8  A    between atoms: C_22  and  O_28
REMARK    9  A    between atoms: C_23  and  O_29
REMARK   10  A    between atoms: C_26  and  O_31
REMARK   11  A    between atoms: C_27  and  O_32
REMARK   12  A    between atoms: C_30  and  O_33
REMARK                            x       y       z     vdW  Elec       q    Type
REMARK                         _______ _______ _______ _____ _____    ______ ____
ROOT
ATOM      1  O   UNL     1       8.442  15.508  40.962  0.00  0.00    +0.000 OA
ATOM      2  C   UNL     1       8.850  14.526  41.557  0.00  0.00    +0.000 A 
ATOM      3  C   UNL     1      10.288  14.348  41.944  0.00  0.00    +0.000 A 
ATOM      4  C   UNL     1       7.935  13.477  42.039  0.00  0.00    +0.000 A 
ATOM      5  C   UNL     1      10.581  13.424  42.563  0.00  0.00    +0.000 A 
ATOM      6  C   UNL     1       8.541  12.467  42.748  0.00  0.00    +0.000 A 
ATOM      7  C   UNL     1       6.490  13.471  41.926  0.00  0.00    +0.000 A 
ATOM      8  O   UNL     1       9.919  12.567  42.903  0.00  0.00    +0.000 OA
ATOM      9  C   UNL     1       7.718  11.461  43.411  0.00  0.00    +0.000 A 
ATOM     10  C   UNL     1       5.722  12.522  42.579  0.00  0.00    +0.000 A 
ATOM     11  C   UNL     1       6.321  11.520  43.324  0.00  0.00    +0.000 A 
ENDROOT
BRANCH   5  12
ATOM     12  C   UNL     1      11.899  13.149  43.294  0.00  0.00    +0.000 A 
ATOM     13  C   UNL     1      13.027  12.699  42.580  0.00  0.00    +0.000 A 
ATOM     14  C   UNL     1      12.093  13.384  44.675  0.00  0.00    +0.000 A 
ATOM     15  C   UNL     1      14.305  12.713  43.100  0.00  0.00    +0.000 A 
ATOM     16  C   UNL     1      13.370  13.298  45.241  0.00  0.00    +0.000 A 
ATOM     17  C   UNL     1      14.479  13.024  44.440  0.00  0.00    +0.000 A 
BRANCH  17  18
ATOM     18  O   UNL     1      15.744  13.085  44.921  0.00  0.00    +0.000 OA
ATOM     19  H   UNL     1      15.689  13.719  45.668  0.00  0.00    +0.000 HD
ENDBRANCH  17  18
BRANCH  15  20
ATOM     20  O   UNL     1      15.383  12.457  42.281  0.00  0.00    +0.000 OA
ATOM     21  H   UNL     1      16.120  11.998  42.755  0.00  0.00    +0.000 HD
ENDBRANCH  15  20
ENDBRANCH   5  12
BRANCH  11  22
ATOM     22  O   UNL     1       5.462  10.641  43.937  0.00  0.00    +0.000 OA
ATOM     23  H   UNL     1       4.728  10.345  43.388  0.00  0.00    +0.000 HD
ENDBRANCH  11  22
BRANCH   7  24
ATOM     24  O   UNL     1       5.802  14.411  41.230  0.00  0.00    +0.000 OA
ATOM     25  H   UNL     1       6.381  14.696  40.510  0.00  0.00    +0.000 HD
ENDBRANCH   7  24
BRANCH   3  26
ATOM     26  O   UNL     1      11.007  15.537  41.720  0.00  0.00    +0.000 OA
BRANCH  26  27
ATOM     27  C   UNL     1      11.069  16.733  42.569  0.00  0.00    +0.000 C 
ATOM     28  O   UNL     1      12.056  16.698  43.614  0.00  0.00    +0.000 OA
ATOM     29  C   UNL     1      11.260  18.069  41.825  0.00  0.00    +0.000 C 
ATOM     30  C   UNL     1      13.441  16.642  43.254  0.00  0.00    +0.000 C 
ATOM     31  C   UNL     1      12.699  18.204  41.283  0.00  0.00    +0.000 C 
ATOM     32  C   UNL     1      13.799  17.826  42.314  0.00  0.00    +0.000 C 
BRANCH  29  33
ATOM     33  O   UNL     1      10.970  19.139  42.749  0.00  0.00    +0.000 OA
ATOM     34  H   UNL     1      11.465  19.010  43.585  0.00  0.00    +0.000 HD
ENDBRANCH  29  33
BRANCH  31  35
ATOM     35  O   UNL     1      12.906  19.550  40.814  0.00  0.00    +0.000 OA
ATOM     36  H   UNL     1      13.105  20.142  41.562  0.00  0.00    +0.000 HD
ENDBRANCH  31  35
BRANCH  32  37
ATOM     37  O   UNL     1      14.913  17.420  41.529  0.00  0.00    +0.000 OA
ATOM     38  H   UNL     1      15.423  16.797  42.049  0.00  0.00    +0.000 HD
ENDBRANCH  32  37
BRANCH  30  39
ATOM     39  C   UNL     1      14.133  16.647  44.634  0.00  0.00    +0.000 C 
BRANCH  39  40
ATOM     40  O   UNL     1      15.508  16.303  44.556  0.00  0.00    +0.000 OA
ATOM     41  H   UNL     1      15.869  16.452  45.453  0.00  0.00    +0.000 HD
ENDBRANCH  39  40
ENDBRANCH  30  39
ENDBRANCH  26  27
ENDBRANCH   3  26
TORSDOF 12
ENDMDL
MODEL 11
REMARK VINA RESULT:    -5.820      1.655      4.780
REMARK INTER + INTRA:         -10.202
REMARK INTER:                  -8.604
REMARK INTRA:                  -1.598
REMARK UNBOUND:                -1.660
REMARK  Name = opt85.pdb
REMARK  12 active torsions:
REMARK  status: ('A' for Active; 'I' for Inactive)
REMARK    1  A    between atoms: C_3  and  O_5
REMARK    2  A    between atoms: O_5  and  C_9
REMARK    3  A    between atoms: C_6  and  C_11
REMARK    4  A    between atoms: C_8  and  O_13
REMARK    5  A    between atoms: C_16  and  O_21
REMARK    6  A    between atoms: C_19  and  O_25
REMARK    7  A    between atoms: C_20  and  C_27
REMARK    8  A    between atoms: C_22  and  O_28
REMARK    9  A    between atoms: C_23  and  O_29
REMARK   10  A    between atoms: C_26  and  O_31
REMARK   11  A    between atoms: C_27  and  O_32
REMARK   12  A    between atoms: C_30  and  O_33
REMARK                            x       y       z     vdW  Elec       q    Type
REMARK                         _______ _______ _______ _____ _____    ______ ____
ROOT
ATOM      1  O   UNL     1      12.639  16.553  41.839  0.00  0.00    +0.000 OA
ATOM      2  C   UNL     1      12.197  15.649  42.527  0.00  0.00    +0.000 A 
ATOM      3  C   UNL     1      10.727  15.431  42.734  0.00  0.00    +0.000 A 
ATOM      4  C   UNL     1      13.075  14.629  43.126  0.00  0.00    +0.000 A 
ATOM      5  C   UNL     1      10.388  14.515  43.342  0.00  0.00    +0.000 A 
ATOM      6  C   UNL     1      12.417  13.641  43.819  0.00  0.00    +0.000 A 
ATOM      7  C   UNL     1      14.511  14.524  42.966  0.00  0.00    +0.000 A 
ATOM      8  O   UNL     1      11.032  13.742  43.867  0.00  0.00    +0.000 OA
ATOM      9  C   UNL     1      13.167  12.492  44.317  0.00  0.00    +0.000 A 
ATOM     10  C   UNL     1      15.205  13.417  43.425  0.00  0.00    +0.000 A 
ATOM     11  C   UNL     1      14.547  12.399  44.095  0.00  0.00    +0.000 A 
ENDROOT
BRANCH   5  12
ATOM     12  C   UNL     1       8.977  13.933  43.474  0.00  0.00    +0.000 A 
ATOM     13  C   UNL     1       8.716  12.606  43.078  0.00  0.00    +0.000 A 
ATOM     14  C   UNL     1       7.890  14.634  44.045  0.00  0.00    +0.000 A 
ATOM     15  C   UNL     1       7.569  11.924  43.432  0.00  0.00    +0.000 A 
ATOM     16  C   UNL     1       6.681  13.982  44.314  0.00  0.00    +0.000 A 
ATOM     17  C   UNL     1       6.547  12.616  44.063  0.00  0.00    +0.000 A 
BRANCH  17  18
ATOM     18  O   UNL     1       5.451  11.921  44.451  0.00  0.00    +0.000 OA
ATOM     19  H   UNL     1       5.674  11.601  45.352  0.00  0.00    +0.000 HD
ENDBRANCH  17  18
BRANCH  15  20
ATOM     20  O   UNL     1       7.471  10.571  43.189  0.00  0.00    +0.000 OA
ATOM     21  H   UNL     1       7.335  10.367  42.231  0.00  0.00    +0.000 HD
ENDBRANCH  15  20
ENDBRANCH   5  12
BRANCH  11  22
ATOM     22  O   UNL     1      15.333  11.346  44.495  0.00  0.00    +0.000 OA
ATOM     23  H   UNL     1      15.974  11.558  45.183  0.00  0.00    +0.000 HD
ENDBRANCH  11  22
BRANCH   7  24
ATOM     24  O   UNL     1      15.250  15.458  42.318  0.00  0.00    +0.000 OA
ATOM     25  H   UNL     1      15.546  15.049  41.493  0.00  0.00    +0.000 HD
ENDBRANCH   7  24
BRANCH   3  26
ATOM     26  O   UNL     1       9.982  16.256  41.872  0.00  0.00    +0.000 OA
BRANCH  26  27
ATOM     27  C   UNL     1       9.478  15.945  40.528  0.00  0.00    +0.000 C 
ATOM     28  O   UNL     1       8.147  15.402  40.479  0.00  0.00    +0.000 OA
ATOM     29  C   UNL     1       9.521  17.104  39.515  0.00  0.00    +0.000 C 
ATOM     30  C   UNL     1       7.052  16.216  40.913  0.00  0.00    +0.000 C 
ATOM     31  C   UNL     1       8.440  18.160  39.831  0.00  0.00    +0.000 C 
ATOM     32  C   UNL     1       7.039  17.558  40.130  0.00  0.00    +0.000 C 
BRANCH  29  33
ATOM     33  O   UNL     1       9.312  16.553  38.198  0.00  0.00    +0.000 OA
ATOM     34  H   UNL     1       8.714  17.130  37.678  0.00  0.00    +0.000 HD
ENDBRANCH  29  33
BRANCH  31  35
ATOM     35  O   UNL     1       8.351  19.092  38.737  0.00  0.00    +0.000 OA
ATOM     36  H   UNL     1       7.518  18.962  38.247  0.00  0.00    +0.000 HD
ENDBRANCH  31  35
BRANCH  32  37
ATOM     37  O   UNL     1       6.394  18.521  40.955  0.00  0.00    +0.000 OA
ATOM     38  H   UNL     1       5.733  18.965  40.421  0.00  0.00    +0.000 HD
ENDBRANCH  32  37
BRANCH  30  39
ATOM     39  C   UNL     1       5.844  15.286  40.674  0.00  0.00    +0.000 C 
BRANCH  39  40
ATOM     40  O   UNL     1       6.190  13.911  40.748  0.00  0.00    +0.000 OA
ATOM     41  H   UNL     1       5.374  13.448  41.028  0.00  0.00    +0.000 HD
ENDBRANCH  39  40
ENDBRANCH  30  39
ENDBRANCH  26  27
ENDBRANCH   3  26
TORSDOF 12
ENDMDL
MODEL 12
REMARK VINA RESULT:    -5.778      2.794      7.467
REMARK INTER + INTRA:         -10.140
REMARK INTER:                  -8.462
REMARK INTRA:                  -1.679
REMARK UNBOUND:                -1.660
REMARK  Name = opt85.pdb
REMARK  12 active torsions:
REMARK  status: ('A' for Active; 'I' for Inactive)
REMARK    1  A    between atoms: C_3  and  O_5
REMARK    2  A    between atoms: O_5  and  C_9
REMARK    3  A    between atoms: C_6  and  C_11
REMARK    4  A    between atoms: C_8  and  O_13
REMARK    5  A    between atoms: C_16  and  O_21
REMARK    6  A    between atoms: C_19  and  O_25
REMARK    7  A    between atoms: C_20  and  C_27
REMARK    8  A    between atoms: C_22  and  O_28
REMARK    9  A    between atoms: C_23  and  O_29
REMARK   10  A    between atoms: C_26  and  O_31
REMARK   11  A    between atoms: C_27  and  O_32
REMARK   12  A    between atoms: C_30  and  O_33
REMARK                            x       y       z     vdW  Elec       q    Type
REMARK                         _______ _______ _______ _____ _____    ______ ____
ROOT
ATOM      1  O   UNL     1      12.681  12.225  43.419  0.00  0.00    +0.000 OA
ATOM      2  C   UNL     1      12.042  13.223  43.704  0.00  0.00    +0.000 A 
ATOM      3  C   UNL     1      12.688  14.507  44.135  0.00  0.00    +0.000 A 
ATOM      4  C   UNL     1      10.579  13.278  43.543  0.00  0.00    +0.000 A 
ATOM      5  C   UNL     1      12.018  15.424  44.321  0.00  0.00    +0.000 A 
ATOM      6  C   UNL     1      10.013  14.495  43.846  0.00  0.00    +0.000 A 
ATOM      7  C   UNL     1       9.728  12.233  43.013  0.00  0.00    +0.000 A 
ATOM      8  O   UNL     1      10.886  15.491  44.266  0.00  0.00    +0.000 OA
ATOM      9  C   UNL     1       8.597  14.716  43.571  0.00  0.00    +0.000 A 
ATOM     10  C   UNL     1       8.391  12.466  42.737  0.00  0.00    +0.000 A 
ATOM     11  C   UNL     1       7.818  13.698  43.006  0.00  0.00    +0.000 A 
ENDROOT
BRANCH   5  12
ATOM     12  C   UNL     1      12.440  16.884  44.508  0.00  0.00    +0.000 A 
ATOM     13  C   UNL     1      13.395  17.230  45.484  0.00  0.00    +0.000 A 
ATOM     14  C   UNL     1      11.969  17.945  43.699  0.00  0.00    +0.000 A 
ATOM     15  C   UNL     1      14.036  18.452  45.515  0.00  0.00    +0.000 A 
ATOM     16  C   UNL     1      12.537  19.221  43.793  0.00  0.00    +0.000 A 
ATOM     17  C   UNL     1      13.609  19.453  44.656  0.00  0.00    +0.000 A 
BRANCH  17  18
ATOM     18  O   UNL     1      14.282  20.628  44.662  0.00  0.00    +0.000 OA
ATOM     19  H   UNL     1      15.112  20.435  44.175  0.00  0.00    +0.000 HD
ENDBRANCH  17  18
BRANCH  15  20
ATOM     20  O   UNL     1      15.104  18.647  46.364  0.00  0.00    +0.000 OA
ATOM     21  H   UNL     1      15.965  18.712  45.882  0.00  0.00    +0.000 HD
ENDBRANCH  15  20
ENDBRANCH   5  12
BRANCH  11  22
ATOM     22  O   UNL     1       6.489  13.820  42.682  0.00  0.00    +0.000 OA
ATOM     23  H   UNL     1       6.247  14.660  42.278  0.00  0.00    +0.000 HD
ENDBRANCH  11  22
BRANCH   7  24
ATOM     24  O   UNL     1      10.187  10.995  42.705  0.00  0.00    +0.000 OA
ATOM     25  H   UNL     1      11.150  11.031  42.788  0.00  0.00    +0.000 HD
ENDBRANCH   7  24
BRANCH   3  26
ATOM     26  O   UNL     1      14.081  14.441  43.950  0.00  0.00    +0.000 OA
BRANCH  26  27
ATOM     27  C   UNL     1      14.833  14.515  42.691  0.00  0.00    +0.000 C 
ATOM     28  O   UNL     1      14.946  15.828  42.116  0.00  0.00    +0.000 OA
ATOM     29  C   UNL     1      16.256  13.926  42.730  0.00  0.00    +0.000 C 
ATOM     30  C   UNL     1      15.665  16.838  42.832  0.00  0.00    +0.000 C 
ATOM     31  C   UNL     1      17.216  14.839  43.523  0.00  0.00    +0.000 C 
ATOM     32  C   UNL     1      17.103  16.344  43.153  0.00  0.00    +0.000 C 
BRANCH  29  33
ATOM     33  O   UNL     1      16.715  13.780  41.369  0.00  0.00    +0.000 OA
ATOM     34  H   UNL     1      16.683  14.642  40.904  0.00  0.00    +0.000 HD
ENDBRANCH  29  33
BRANCH  31  35
ATOM     35  O   UNL     1      18.569  14.386  43.332  0.00  0.00    +0.000 OA
ATOM     36  H   UNL     1      19.060  15.012  42.768  0.00  0.00    +0.000 HD
ENDBRANCH  31  35
BRANCH  32  37
ATOM     37  O   UNL     1      17.538  17.040  44.315  0.00  0.00    +0.000 OA
ATOM     38  H   UNL     1      17.164  17.923  44.282  0.00  0.00    +0.000 HD
ENDBRANCH  32  37
BRANCH  30  39
ATOM     39  C   UNL     1      15.567  18.045  41.875  0.00  0.00    +0.000 C 
BRANCH  39  40
ATOM     40  O   UNL     1      16.107  19.232  42.437  0.00  0.00    +0.000 OA
ATOM     41  H   UNL     1      15.386  19.892  42.401  0.00  0.00    +0.000 HD
ENDBRANCH  39  40
ENDBRANCH  30  39
ENDBRANCH  26  27
ENDBRANCH   3  26
TORSDOF 12
ENDMDL
MODEL 13
REMARK VINA RESULT:    -5.755      2.517      7.667
REMARK INTER + INTRA:         -10.107
REMARK INTER:                  -8.814
REMARK INTRA:                  -1.293
REMARK UNBOUND:                -1.660
REMARK  Name = opt85.pdb
REMARK  12 active torsions:
REMARK  status: ('A' for Active; 'I' for Inactive)
REMARK    1  A    between atoms: C_3  and  O_5
REMARK    2  A    between atoms: O_5  and  C_9
REMARK    3  A    between atoms: C_6  and  C_11
REMARK    4  A    between atoms: C_8  and  O_13
REMARK    5  A    between atoms: C_16  and  O_21
REMARK    6  A    between atoms: C_19  and  O_25
REMARK    7  A    between atoms: C_20  and  C_27
REMARK    8  A    between atoms: C_22  and  O_28
REMARK    9  A    between atoms: C_23  and  O_29
REMARK   10  A    between atoms: C_26  and  O_31
REMARK   11  A    between atoms: C_27  and  O_32
REMARK   12  A    between atoms: C_30  and  O_33
REMARK                            x       y       z     vdW  Elec       q    Type
REMARK                         _______ _______ _______ _____ _____    ______ ____
ROOT
ATOM      1  O   UNL     1      14.608  17.447  42.416  0.00  0.00    +0.000 OA
ATOM      2  C   UNL     1      13.529  17.038  42.022  0.00  0.00    +0.000 A 
ATOM      3  C   UNL     1      12.987  15.688  42.391  0.00  0.00    +0.000 A 
ATOM      4  C   UNL     1      12.619  17.888  41.235  0.00  0.00    +0.000 A 
ATOM      5  C   UNL     1      11.931  15.404  42.033  0.00  0.00    +0.000 A 
ATOM      6  C   UNL     1      11.414  17.304  40.923  0.00  0.00    +0.000 A 
ATOM      7  C   UNL     1      12.833  19.272  40.864  0.00  0.00    +0.000 A 
ATOM      8  O   UNL     1      11.225  16.004  41.379  0.00  0.00    +0.000 OA
ATOM      9  C   UNL     1      10.371  18.103  40.288  0.00  0.00    +0.000 A 
ATOM     10  C   UNL     1      11.826  20.023  40.282  0.00  0.00    +0.000 A 
ATOM     11  C   UNL     1      10.596  19.454  39.994  0.00  0.00    +0.000 A 
ENDROOT
BRANCH   5  12
ATOM     12  C   UNL     1      11.064  14.224  42.482  0.00  0.00    +0.000 A 
ATOM     13  C   UNL     1      10.046  14.413  43.438  0.00  0.00    +0.000 A 
ATOM     14  C   UNL     1      11.170  12.922  41.940  0.00  0.00    +0.000 A 
ATOM     15  C   UNL     1       9.047  13.489  43.671  0.00  0.00    +0.000 A 
ATOM     16  C   UNL     1      10.224  11.939  42.250  0.00  0.00    +0.000 A 
ATOM     17  C   UNL     1       9.133  12.244  43.064  0.00  0.00    +0.000 A 
BRANCH  17  18
ATOM     18  O   UNL     1       8.118  11.369  43.261  0.00  0.00    +0.000 OA
ATOM     19  H   UNL     1       8.537  10.487  43.166  0.00  0.00    +0.000 HD
ENDBRANCH  17  18
BRANCH  15  20
ATOM     20  O   UNL     1       7.973  13.824  44.465  0.00  0.00    +0.000 OA
ATOM     21  H   UNL     1       8.224  13.942  45.414  0.00  0.00    +0.000 HD
ENDBRANCH  15  20
ENDBRANCH   5  12
BRANCH  11  22
ATOM     22  O   UNL     1       9.670  20.296  39.427  0.00  0.00    +0.000 OA
ATOM     23  H   UNL     1       8.783  20.228  39.797  0.00  0.00    +0.000 HD
ENDBRANCH  11  22
BRANCH   7  24
ATOM     24  O   UNL     1      13.994  19.929  41.109  0.00  0.00    +0.000 OA
ATOM     25  H   UNL     1      14.602  19.683  40.398  0.00  0.00    +0.000 HD
ENDBRANCH   7  24
BRANCH   3  26
ATOM     26  O   UNL     1      13.782  15.097  43.390  0.00  0.00    +0.000 OA
BRANCH  26  27
ATOM     27  C   UNL     1      14.516  13.827  43.332  0.00  0.00    +0.000 C 
ATOM     28  O   UNL     1      15.667  13.818  42.469  0.00  0.00    +0.000 OA
ATOM     29  C   UNL     1      14.976  13.260  44.688  0.00  0.00    +0.000 C 
ATOM     30  C   UNL     1      16.774  14.668  42.785  0.00  0.00    +0.000 C 
ATOM     31  C   UNL     1      16.152  14.078  45.263  0.00  0.00    +0.000 C 
ATOM     32  C   UNL     1      17.272  14.385  44.230  0.00  0.00    +0.000 C 
BRANCH  29  33
ATOM     33  O   UNL     1      15.372  11.887  44.486  0.00  0.00    +0.000 OA
ATOM     34  H   UNL     1      16.319  11.839  44.236  0.00  0.00    +0.000 HD
ENDBRANCH  29  33
BRANCH  31  35
ATOM     35  O   UNL     1      16.706  13.382  46.396  0.00  0.00    +0.000 OA
ATOM     36  H   UNL     1      17.630  13.125  46.217  0.00  0.00    +0.000 HD
ENDBRANCH  31  35
BRANCH  32  37
ATOM     37  O   UNL     1      17.892  15.575  44.703  0.00  0.00    +0.000 OA
ATOM     38  H   UNL     1      18.251  16.036  43.944  0.00  0.00    +0.000 HD
ENDBRANCH  32  37
BRANCH  30  39
ATOM     39  C   UNL     1      17.770  14.335  41.654  0.00  0.00    +0.000 C 
BRANCH  39  40
ATOM     40  O   UNL     1      17.211  13.481  40.668  0.00  0.00    +0.000 OA
ATOM     41  H   UNL     1      17.551  12.586  40.870  0.00  0.00    +0.000 HD
ENDBRANCH  39  40
ENDBRANCH  30  39
ENDBRANCH  26  27
ENDBRANCH   3  26
TORSDOF 12
ENDMDL
MODEL 14
REMARK VINA RESULT:    -5.679      1.444      2.392
REMARK INTER + INTRA:          -9.994
REMARK INTER:                  -8.706
REMARK INTRA:                  -1.289
REMARK UNBOUND:                -1.660
REMARK  Name = opt85.pdb
REMARK  12 active torsions:
REMARK  status: ('A' for Active; 'I' for Inactive)
REMARK    1  A    between atoms: C_3  and  O_5
REMARK    2  A    between atoms: O_5  and  C_9
REMARK    3  A    between atoms: C_6  and  C_11
REMARK    4  A    between atoms: C_8  and  O_13
REMARK    5  A    between atoms: C_16  and  O_21
REMARK    6  A    between atoms: C_19  and  O_25
REMARK    7  A    between atoms: C_20  and  C_27
REMARK    8  A    between atoms: C_22  and  O_28
REMARK    9  A    between atoms: C_23  and  O_29
REMARK   10  A    between atoms: C_26  and  O_31
REMARK   11  A    between atoms: C_27  and  O_32
REMARK   12  A    between atoms: C_30  and  O_33
REMARK                            x       y       z     vdW  Elec       q    Type
REMARK                         _______ _______ _______ _____ _____    ______ ____
ROOT
ATOM      1  O   UNL     1      11.292  12.174  43.577  0.00  0.00    +0.000 OA
ATOM      2  C   UNL     1      11.894  13.223  43.430  0.00  0.00    +0.000 A 
ATOM      3  C   UNL     1      11.243  14.466  42.898  0.00  0.00    +0.000 A 
ATOM      4  C   UNL     1      13.292  13.383  43.866  0.00  0.00    +0.000 A 
ATOM      5  C   UNL     1      11.863  15.434  42.852  0.00  0.00    +0.000 A 
ATOM      6  C   UNL     1      13.808  14.645  43.690  0.00  0.00    +0.000 A 
ATOM      7  C   UNL     1      14.106  12.390  44.537  0.00  0.00    +0.000 A 
ATOM      8  O   UNL     1      12.955  15.584  43.123  0.00  0.00    +0.000 OA
ATOM      9  C   UNL     1      15.125  14.964  44.232  0.00  0.00    +0.000 A 
ATOM     10  C   UNL     1      15.344  12.714  45.065  0.00  0.00    +0.000 A 
ATOM     11  C   UNL     1      15.860  13.992  44.922  0.00  0.00    +0.000 A 
ENDROOT
BRANCH   5  12
ATOM     12  C   UNL     1      11.372  16.864  42.605  0.00  0.00    +0.000 A 
ATOM     13  C   UNL     1      11.344  17.390  41.299  0.00  0.00    +0.000 A 
ATOM     14  C   UNL     1      10.866  17.706  43.623  0.00  0.00    +0.000 A 
ATOM     15  C   UNL     1      10.652  18.536  40.960  0.00  0.00    +0.000 A 
ATOM     16  C   UNL     1      10.255  18.924  43.305  0.00  0.00    +0.000 A 
ATOM     17  C   UNL     1      10.096  19.305  41.972  0.00  0.00    +0.000 A 
BRANCH  17  18
ATOM     18  O   UNL     1       9.376  20.397  41.619  0.00  0.00    +0.000 OA
ATOM     19  H   UNL     1      10.018  20.967  41.144  0.00  0.00    +0.000 HD
ENDBRANCH  17  18
BRANCH  15  20
ATOM     20  O   UNL     1      10.495  18.878  39.635  0.00  0.00    +0.000 OA
ATOM     21  H   UNL     1       9.552  19.054  39.397  0.00  0.00    +0.000 HD
ENDBRANCH  15  20
ENDBRANCH   5  12
BRANCH  11  22
ATOM     22  O   UNL     1      17.091  14.203  45.495  0.00  0.00    +0.000 OA
ATOM     23  H   UNL     1      17.824  13.761  45.052  0.00  0.00    +0.000 HD
ENDBRANCH  11  22
BRANCH   7  24
ATOM     24  O   UNL     1      13.694  11.113  44.738  0.00  0.00    +0.000 OA
ATOM     25  H   UNL     1      12.980  11.156  45.389  0.00  0.00    +0.000 HD
ENDBRANCH   7  24
BRANCH   3  26
ATOM     26  O   UNL     1       9.849  14.293  42.814  0.00  0.00    +0.000 OA
BRANCH  26  27
ATOM     27  C   UNL     1       8.992  14.393  41.627  0.00  0.00    +0.000 C 
ATOM     28  O   UNL     1       8.151  13.254  41.375  0.00  0.00    +0.000 OA
ATOM     29  C   UNL     1       8.084  15.635  41.563  0.00  0.00    +0.000 C 
ATOM     30  C   UNL     1       7.131  12.924  42.324  0.00  0.00    +0.000 C 
ATOM     31  C   UNL     1       6.920  15.527  42.571  0.00  0.00    +0.000 C 
ATOM     32  C   UNL     1       6.202  14.148  42.558  0.00  0.00    +0.000 C 
BRANCH  29  33
ATOM     33  O   UNL     1       7.574  15.746  40.218  0.00  0.00    +0.000 OA
ATOM     34  H   UNL     1       6.612  15.557  40.201  0.00  0.00    +0.000 HD
ENDBRANCH  29  33
BRANCH  31  35
ATOM     35  O   UNL     1       5.969  16.578  42.314  0.00  0.00    +0.000 OA
ATOM     36  H   UNL     1       5.355  16.314  41.604  0.00  0.00    +0.000 HD
ENDBRANCH  31  35
BRANCH  32  37
ATOM     37  O   UNL     1       5.646  14.013  43.860  0.00  0.00    +0.000 OA
ATOM     38  H   UNL     1       5.451  14.893  44.186  0.00  0.00    +0.000 HD
ENDBRANCH  32  37
BRANCH  30  39
ATOM     39  C   UNL     1       6.468  11.693  41.672  0.00  0.00    +0.000 C 
BRANCH  39  40
ATOM     40  O   UNL     1       6.597  11.688  40.258  0.00  0.00    +0.000 OA
ATOM     41  H   UNL     1       7.499  11.353  40.076  0.00  0.00    +0.000 HD
ENDBRANCH  39  40
ENDBRANCH  30  39
ENDBRANCH  26  27
ENDBRANCH   3  26
TORSDOF 12
ENDMDL
MODEL 15
REMARK VINA RESULT:    -5.648      2.275      7.884
REMARK INTER + INTRA:          -9.949
REMARK INTER:                  -8.085
REMARK INTRA:                  -1.864
REMARK UNBOUND:                -1.660
REMARK  Name = opt85.pdb
REMARK  12 active torsions:
REMARK  status: ('A' for Active; 'I' for Inactive)
REMARK    1  A    between atoms: C_3  and  O_5
REMARK    2  A    between atoms: O_5  and  C_9
REMARK    3  A    between atoms: C_6  and  C_11
REMARK    4  A    between atoms: C_8  and  O_13
REMARK    5  A    between atoms: C_16  and  O_21
REMARK    6  A    between atoms: C_19  and  O_25
REMARK    7  A    between atoms: C_20  and  C_27
REMARK    8  A    between atoms: C_22  and  O_28
REMARK    9  A    between atoms: C_23  and  O_29
REMARK   10  A    between atoms: C_26  and  O_31
REMARK   11  A    between atoms: C_27  and  O_32
REMARK   12  A    between atoms: C_30  and  O_33
REMARK                            x       y       z     vdW  Elec       q    Type
REMARK                         _______ _______ _______ _____ _____    ______ ____
ROOT
ATOM      1  O   UNL     1       9.482  16.254  40.914  0.00  0.00    +0.000 OA
ATOM      2  C   UNL     1       9.797  15.224  41.483  0.00  0.00    +0.000 A 
ATOM      3  C   UNL     1      11.193  14.955  41.965  0.00  0.00    +0.000 A 
ATOM      4  C   UNL     1       8.801  14.199  41.839  0.00  0.00    +0.000 A 
ATOM      5  C   UNL     1      11.394  13.987  42.553  0.00  0.00    +0.000 A 
ATOM      6  C   UNL     1       9.304  13.125  42.535  0.00  0.00    +0.000 A 
ATOM      7  C   UNL     1       7.370  14.272  41.620  0.00  0.00    +0.000 A 
ATOM      8  O   UNL     1      10.669  13.148  42.796  0.00  0.00    +0.000 OA
ATOM      9  C   UNL     1       8.387  12.129  43.080  0.00  0.00    +0.000 A 
ATOM     10  C   UNL     1       6.512  13.331  42.163  0.00  0.00    +0.000 A 
ATOM     11  C   UNL     1       7.006  12.263  42.894  0.00  0.00    +0.000 A 
ENDROOT
BRANCH   5  12
ATOM     12  C   UNL     1      12.639  13.610  43.362  0.00  0.00    +0.000 A 
ATOM     13  C   UNL     1      13.866  13.377  42.711  0.00  0.00    +0.000 A 
ATOM     14  C   UNL     1      12.663  13.538  44.775  0.00  0.00    +0.000 A 
ATOM     15  C   UNL     1      15.076  13.327  43.375  0.00  0.00    +0.000 A 
ATOM     16  C   UNL     1      13.872  13.380  45.461  0.00  0.00    +0.000 A 
ATOM     17  C   UNL     1      15.078  13.337  44.762  0.00  0.00    +0.000 A 
BRANCH  17  18
ATOM     18  O   UNL     1      16.275  13.340  45.396  0.00  0.00    +0.000 OA
ATOM     19  H   UNL     1      16.161  13.986  46.126  0.00  0.00    +0.000 HD
ENDBRANCH  17  18
BRANCH  15  20
ATOM     20  O   UNL     1      16.252  13.304  42.658  0.00  0.00    +0.000 OA
ATOM     21  H   UNL     1      16.136  13.616  41.727  0.00  0.00    +0.000 HD
ENDBRANCH  15  20
ENDBRANCH   5  12
BRANCH  11  22
ATOM     22  O   UNL     1       6.062  11.398  43.394  0.00  0.00    +0.000 OA
ATOM     23  H   UNL     1       5.558  11.738  44.141  0.00  0.00    +0.000 HD
ENDBRANCH  11  22
BRANCH   7  24
ATOM     24  O   UNL     1       6.782  15.278  40.927  0.00  0.00    +0.000 OA
ATOM     25  H   UNL     1       7.120  16.103  41.302  0.00  0.00    +0.000 HD
ENDBRANCH   7  24
BRANCH   3  26
ATOM     26  O   UNL     1      11.980  16.116  41.859  0.00  0.00    +0.000 OA
BRANCH  26  27
ATOM     27  C   UNL     1      12.121  17.209  42.829  0.00  0.00    +0.000 C 
ATOM     28  O   UNL     1      13.171  17.042  43.798  0.00  0.00    +0.000 OA
ATOM     29  C   UNL     1      12.294  18.616  42.228  0.00  0.00    +0.000 C 
ATOM     30  C   UNL     1      14.529  17.006  43.346  0.00  0.00    +0.000 C 
ATOM     31  C   UNL     1      13.699  18.790  41.612  0.00  0.00    +0.000 C 
ATOM     32  C   UNL     1      14.853  18.284  42.522  0.00  0.00    +0.000 C 
BRANCH  29  33
ATOM     33  O   UNL     1      12.086  19.580  43.282  0.00  0.00    +0.000 OA
ATOM     34  H   UNL     1      11.373  19.279  43.883  0.00  0.00    +0.000 HD
ENDBRANCH  29  33
BRANCH  31  35
ATOM     35  O   UNL     1      13.905  20.177  41.284  0.00  0.00    +0.000 OA
ATOM     36  H   UNL     1      14.220  20.265  40.365  0.00  0.00    +0.000 HD
ENDBRANCH  31  35
BRANCH  32  37
ATOM     37  O   UNL     1      15.907  17.952  41.626  0.00  0.00    +0.000 OA
ATOM     38  H   UNL     1      16.227  17.080  41.865  0.00  0.00    +0.000 HD
ENDBRANCH  32  37
BRANCH  30  39
ATOM     39  C   UNL     1      15.306  16.846  44.670  0.00  0.00    +0.000 C 
BRANCH  39  40
ATOM     40  O   UNL     1      16.633  16.384  44.471  0.00  0.00    +0.000 OA
ATOM     41  H   UNL     1      16.718  16.230  43.509  0.00  0.00    +0.000 HD
ENDBRANCH  39  40
ENDBRANCH  30  39
ENDBRANCH  26  27
ENDBRANCH   3  26
TORSDOF 12
ENDMDL
MODEL 16
REMARK VINA RESULT:    -5.596      2.510      7.035
REMARK INTER + INTRA:          -9.873
REMARK INTER:                  -8.587
REMARK INTRA:                  -1.286
REMARK UNBOUND:                -1.660
REMARK  Name = opt85.pdb
REMARK  12 active torsions:
REMARK  status: ('A' for Active; 'I' for Inactive)
REMARK    1  A    between atoms: C_3  and  O_5
REMARK    2  A    between atoms: O_5  and  C_9
REMARK    3  A    between atoms: C_6  and  C_11
REMARK    4  A    between atoms: C_8  and  O_13
REMARK    5  A    between atoms: C_16  and  O_21
REMARK    6  A    between atoms: C_19  and  O_25
REMARK    7  A    between atoms: C_20  and  C_27
REMARK    8  A    between atoms: C_22  and  O_28
REMARK    9  A    between atoms: C_23  and  O_29
REMARK   10  A    between atoms: C_26  and  O_31
REMARK   11  A    between atoms: C_27  and  O_32
REMARK   12  A    between atoms: C_30  and  O_33
REMARK                            x       y       z     vdW  Elec       q    Type
REMARK                         _______ _______ _______ _____ _____    ______ ____
ROOT
ATOM      1  O   UNL     1      10.471  13.419  44.562  0.00  0.00    +0.000 OA
ATOM      2  C   UNL     1      10.285  14.502  44.034  0.00  0.00    +0.000 A 
ATOM      3  C   UNL     1      11.383  15.503  43.827  0.00  0.00    +0.000 A 
ATOM      4  C   UNL     1       8.980  14.870  43.458  0.00  0.00    +0.000 A 
ATOM      5  C   UNL     1      11.140  16.475  43.259  0.00  0.00    +0.000 A 
ATOM      6  C   UNL     1       8.951  16.098  42.841  0.00  0.00    +0.000 A 
ATOM      7  C   UNL     1       7.797  14.036  43.395  0.00  0.00    +0.000 A 
ATOM      8  O   UNL     1      10.138  16.820  42.853  0.00  0.00    +0.000 OA
ATOM      9  C   UNL     1       7.762  16.499  42.095  0.00  0.00    +0.000 A 
ATOM     10  C   UNL     1       6.685  14.421  42.665  0.00  0.00    +0.000 A 
ATOM     11  C   UNL     1       6.658  15.642  42.011  0.00  0.00    +0.000 A 
ENDROOT
BRANCH   5  12
ATOM     12  C   UNL     1      12.115  17.514  42.698  0.00  0.00    +0.000 A 
ATOM     13  C   UNL     1      12.489  17.479  41.340  0.00  0.00    +0.000 A 
ATOM     14  C   UNL     1      12.639  18.588  43.457  0.00  0.00    +0.000 A 
ATOM     15  C   UNL     1      13.113  18.531  40.701  0.00  0.00    +0.000 A 
ATOM     16  C   UNL     1      13.367  19.611  42.840  0.00  0.00    +0.000 A 
ATOM     17  C   UNL     1      13.548  19.610  41.456  0.00  0.00    +0.000 A 
BRANCH  17  18
ATOM     18  O   UNL     1      14.111  20.657  40.806  0.00  0.00    +0.000 OA
ATOM     19  H   UNL     1      14.465  20.266  39.979  0.00  0.00    +0.000 HD
ENDBRANCH  17  18
BRANCH  15  20
ATOM     20  O   UNL     1      13.262  18.512  39.331  0.00  0.00    +0.000 OA
ATOM     21  H   UNL     1      13.812  17.752  39.020  0.00  0.00    +0.000 HD
ENDBRANCH  15  20
ENDBRANCH   5  12
BRANCH  11  22
ATOM     22  O   UNL     1       5.508  15.914  41.309  0.00  0.00    +0.000 OA
ATOM     23  H   UNL     1       5.193  16.821  41.387  0.00  0.00    +0.000 HD
ENDBRANCH  11  22
BRANCH   7  24
ATOM     24  O   UNL     1       7.721  12.819  43.989  0.00  0.00    +0.000 OA
ATOM     25  H   UNL     1       6.780  12.617  44.079  0.00  0.00    +0.000 HD
ENDBRANCH   7  24
BRANCH   3  26
ATOM     26  O   UNL     1      12.633  14.929  44.121  0.00  0.00    +0.000 OA
BRANCH  26  27
ATOM     27  C   UNL     1      13.633  14.403  43.184  0.00  0.00    +0.000 C 
ATOM     28  O   UNL     1      14.918  15.048  43.227  0.00  0.00    +0.000 OA
ATOM     29  C   UNL     1      13.896  12.888  43.272  0.00  0.00    +0.000 C 
ATOM     30  C   UNL     1      15.701  14.951  44.422  0.00  0.00    +0.000 C 
ATOM     31  C   UNL     1      14.693  12.533  44.545  0.00  0.00    +0.000 C 
ATOM     32  C   UNL     1      15.914  13.459  44.803  0.00  0.00    +0.000 C 
BRANCH  29  33
ATOM     33  O   UNL     1      14.632  12.495  42.094  0.00  0.00    +0.000 OA
ATOM     34  H   UNL     1      14.688  11.518  42.037  0.00  0.00    +0.000 HD
ENDBRANCH  29  33
BRANCH  31  35
ATOM     35  O   UNL     1      15.125  11.161  44.468  0.00  0.00    +0.000 OA
ATOM     36  H   UNL     1      15.026  10.726  45.335  0.00  0.00    +0.000 HD
ENDBRANCH  31  35
BRANCH  32  37
ATOM     37  O   UNL     1      16.121  13.409  46.209  0.00  0.00    +0.000 OA
ATOM     38  H   UNL     1      17.062  13.504  46.367  0.00  0.00    +0.000 HD
ENDBRANCH  32  37
BRANCH  30  39
ATOM     39  C   UNL     1      16.973  15.735  44.039  0.00  0.00    +0.000 C 
BRANCH  39  40
ATOM     40  O   UNL     1      17.968  14.909  43.452  0.00  0.00    +0.000 OA
ATOM     41  H   UNL     1      18.402  15.461  42.771  0.00  0.00    +0.000 HD
ENDBRANCH  39  40
ENDBRANCH  30  39
ENDBRANCH  26  27
ENDBRANCH   3  26
TORSDOF 12
ENDMDL
MODEL 17
REMARK VINA RESULT:    -5.546      1.672      4.383
REMARK INTER + INTRA:          -9.799
REMARK INTER:                  -8.455
REMARK INTRA:                  -1.344
REMARK UNBOUND:                -1.660
REMARK  Name = opt85.pdb
REMARK  12 active torsions:
REMARK  status: ('A' for Active; 'I' for Inactive)
REMARK    1  A    between atoms: C_3  and  O_5
REMARK    2  A    between atoms: O_5  and  C_9
REMARK    3  A    between atoms: C_6  and  C_11
REMARK    4  A    between atoms: C_8  and  O_13
REMARK    5  A    between atoms: C_16  and  O_21
REMARK    6  A    between atoms: C_19  and  O_25
REMARK    7  A    between atoms: C_20  and  C_27
REMARK    8  A    between atoms: C_22  and  O_28
REMARK    9  A    between atoms: C_23  and  O_29
REMARK   10  A    between atoms: C_26  and  O_31
REMARK   11  A    between atoms: C_27  and  O_32
REMARK   12  A    between atoms: C_30  and  O_33
REMARK                            x       y       z     vdW  Elec       q    Type
REMARK                         _______ _______ _______ _____ _____    ______ ____
ROOT
ATOM      1  O   UNL     1      12.178  16.514  41.283  0.00  0.00    +0.000 OA
ATOM      2  C   UNL     1      11.799  15.652  42.057  0.00  0.00    +0.000 A 
ATOM      3  C   UNL     1      10.350  15.315  42.253  0.00  0.00    +0.000 A 
ATOM      4  C   UNL     1      12.749  14.793  42.786  0.00  0.00    +0.000 A 
ATOM      5  C   UNL     1      10.079  14.442  42.952  0.00  0.00    +0.000 A 
ATOM      6  C   UNL     1      12.164  13.826  43.570  0.00  0.00    +0.000 A 
ATOM      7  C   UNL     1      14.193  14.811  42.672  0.00  0.00    +0.000 A 
ATOM      8  O   UNL     1      10.775  13.797  43.575  0.00  0.00    +0.000 OA
ATOM      9  C   UNL     1      13.002  12.817  44.210  0.00  0.00    +0.000 A 
ATOM     10  C   UNL     1      14.972  13.833  43.268  0.00  0.00    +0.000 A 
ATOM     11  C   UNL     1      14.391  12.835  44.032  0.00  0.00    +0.000 A 
ENDROOT
BRANCH   5  12
ATOM     12  C   UNL     1       8.726  13.743  43.115  0.00  0.00    +0.000 A 
ATOM     13  C   UNL     1       8.101  13.136  42.008  0.00  0.00    +0.000 A 
ATOM     14  C   UNL     1       8.061  13.601  44.356  0.00  0.00    +0.000 A 
ATOM     15  C   UNL     1       7.051  12.248  42.126  0.00  0.00    +0.000 A 
ATOM     16  C   UNL     1       6.929  12.787  44.471  0.00  0.00    +0.000 A 
ATOM     17  C   UNL     1       6.466  12.066  43.370  0.00  0.00    +0.000 A 
BRANCH  17  18
ATOM     18  O   UNL     1       5.471  11.152  43.478  0.00  0.00    +0.000 OA
ATOM     19  H   UNL     1       4.648  11.679  43.396  0.00  0.00    +0.000 HD
ENDBRANCH  17  18
BRANCH  15  20
ATOM     20  O   UNL     1       6.626  11.536  41.025  0.00  0.00    +0.000 OA
ATOM     21  H   UNL     1       7.168  11.722  40.220  0.00  0.00    +0.000 HD
ENDBRANCH  15  20
ENDBRANCH   5  12
BRANCH  11  22
ATOM     22  O   UNL     1      15.259  11.913  44.565  0.00  0.00    +0.000 OA
ATOM     23  H   UNL     1      15.201  11.033  44.178  0.00  0.00    +0.000 HD
ENDBRANCH  11  22
BRANCH   7  24
ATOM     24  O   UNL     1      14.863  15.736  41.942  0.00  0.00    +0.000 OA
ATOM     25  H   UNL     1      15.526  15.253  41.430  0.00  0.00    +0.000 HD
ENDBRANCH   7  24
BRANCH   3  26
ATOM     26  O   UNL     1       9.561  15.965  41.287  0.00  0.00    +0.000 OA
BRANCH  26  27
ATOM     27  C   UNL     1       8.881  17.262  41.395  0.00  0.00    +0.000 C 
ATOM     28  O   UNL     1       7.722  17.422  40.559  0.00  0.00    +0.000 OA
ATOM     29  C   UNL     1       8.462  17.679  42.817  0.00  0.00    +0.000 C 
ATOM     30  C   UNL     1       6.583  16.586  40.790  0.00  0.00    +0.000 C 
ATOM     31  C   UNL     1       7.259  16.846  43.310  0.00  0.00    +0.000 C 
ATOM     32  C   UNL     1       6.115  16.713  42.267  0.00  0.00    +0.000 C 
BRANCH  29  33
ATOM     33  O   UNL     1       8.123  19.082  42.788  0.00  0.00    +0.000 OA
ATOM     34  H   UNL     1       8.640  19.571  43.461  0.00  0.00    +0.000 HD
ENDBRANCH  29  33
BRANCH  31  35
ATOM     35  O   UNL     1       6.749  17.423  44.527  0.00  0.00    +0.000 OA
ATOM     36  H   UNL     1       6.299  16.743  45.062  0.00  0.00    +0.000 HD
ENDBRANCH  31  35
BRANCH  32  37
ATOM     37  O   UNL     1       5.451  15.501  42.604  0.00  0.00    +0.000 OA
ATOM     38  H   UNL     1       4.920  15.241  41.849  0.00  0.00    +0.000 HD
ENDBRANCH  32  37
BRANCH  30  39
ATOM     39  C   UNL     1       5.588  17.093  39.724  0.00  0.00    +0.000 C 
BRANCH  39  40
ATOM     40  O   UNL     1       5.633  16.329  38.528  0.00  0.00    +0.000 OA
ATOM     41  H   UNL     1       6.458  16.596  38.075  0.00  0.00    +0.000 HD
ENDBRANCH  39  40
ENDBRANCH  30  39
ENDBRANCH  26  27
ENDBRANCH   3  26
TORSDOF 12
ENDMDL
MODEL 18
REMARK VINA RESULT:    -5.423      2.472      5.540
REMARK INTER + INTRA:          -9.618
REMARK INTER:                  -8.813
REMARK INTRA:                  -0.805
REMARK UNBOUND:                -1.660
REMARK  Name = opt85.pdb
REMARK  12 active torsions:
REMARK  status: ('A' for Active; 'I' for Inactive)
REMARK    1  A    between atoms: C_3  and  O_5
REMARK    2  A    between atoms: O_5  and  C_9
REMARK    3  A    between atoms: C_6  and  C_11
REMARK    4  A    between atoms: C_8  and  O_13
REMARK    5  A    between atoms: C_16  and  O_21
REMARK    6  A    between atoms: C_19  and  O_25
REMARK    7  A    between atoms: C_20  and  C_27
REMARK    8  A    between atoms: C_22  and  O_28
REMARK    9  A    between atoms: C_23  and  O_29
REMARK   10  A    between atoms: C_26  and  O_31
REMARK   11  A    between atoms: C_27  and  O_32
REMARK   12  A    between atoms: C_30  and  O_33
REMARK                            x       y       z     vdW  Elec       q    Type
REMARK                         _______ _______ _______ _____ _____    ______ ____
ROOT
ATOM      1  O   UNL     1       8.840  18.425  42.671  0.00  0.00    +0.000 OA
ATOM      2  C   UNL     1       9.841  18.011  43.228  0.00  0.00    +0.000 A 
ATOM      3  C   UNL     1      10.165  16.550  43.339  0.00  0.00    +0.000 A 
ATOM      4  C   UNL     1      10.874  18.925  43.747  0.00  0.00    +0.000 A 
ATOM      5  C   UNL     1      11.164  16.243  43.821  0.00  0.00    +0.000 A 
ATOM      6  C   UNL     1      11.973  18.302  44.289  0.00  0.00    +0.000 A 
ATOM      7  C   UNL     1      10.879  20.370  43.643  0.00  0.00    +0.000 A 
ATOM      8  O   UNL     1      11.956  16.912  44.283  0.00  0.00    +0.000 OA
ATOM      9  C   UNL     1      13.128  19.100  44.686  0.00  0.00    +0.000 A 
ATOM     10  C   UNL     1      11.992  21.111  44.004  0.00  0.00    +0.000 A 
ATOM     11  C   UNL     1      13.117  20.491  44.520  0.00  0.00    +0.000 A 
ENDROOT
BRANCH   5  12
ATOM     12  C   UNL     1      11.836  14.867  43.818  0.00  0.00    +0.000 A 
ATOM     13  C   UNL     1      13.052  14.668  44.500  0.00  0.00    +0.000 A 
ATOM     14  C   UNL     1      11.272  13.720  43.211  0.00  0.00    +0.000 A 
ATOM     15  C   UNL     1      13.560  13.417  44.791  0.00  0.00    +0.000 A 
ATOM     16  C   UNL     1      11.837  12.456  43.408  0.00  0.00    +0.000 A 
ATOM     17  C   UNL     1      12.941  12.302  44.247  0.00  0.00    +0.000 A 
BRANCH  17  18
ATOM     18  O   UNL     1      13.420  11.080  44.585  0.00  0.00    +0.000 OA
ATOM     19  H   UNL     1      12.635  10.493  44.547  0.00  0.00    +0.000 HD
ENDBRANCH  17  18
BRANCH  15  20
ATOM     20  O   UNL     1      14.640  13.294  45.636  0.00  0.00    +0.000 OA
ATOM     21  H   UNL     1      14.657  12.425  46.107  0.00  0.00    +0.000 HD
ENDBRANCH  15  20
ENDBRANCH   5  12
BRANCH  11  22
ATOM     22  O   UNL     1      14.164  21.323  44.833  0.00  0.00    +0.000 OA
ATOM     23  H   UNL     1      14.271  22.077  44.242  0.00  0.00    +0.000 HD
ENDBRANCH  11  22
BRANCH   7  24
ATOM     24  O   UNL     1       9.835  21.076  43.143  0.00  0.00    +0.000 OA
ATOM     25  H   UNL     1       9.178  20.428  42.857  0.00  0.00    +0.000 HD
ENDBRANCH   7  24
BRANCH   3  26
ATOM     26  O   UNL     1       9.287  15.791  42.544  0.00  0.00    +0.000 OA
BRANCH  26  27
ATOM     27  C   UNL     1       7.826  15.691  42.648  0.00  0.00    +0.000 C 
ATOM     28  O   UNL     1       7.191  14.872  41.651  0.00  0.00    +0.000 OA
ATOM     29  C   UNL     1       7.285  15.224  44.013  0.00  0.00    +0.000 C 
ATOM     30  C   UNL     1       7.481  13.470  41.621  0.00  0.00    +0.000 C 
ATOM     31  C   UNL     1       7.548  13.719  44.231  0.00  0.00    +0.000 C 
ATOM     32  C   UNL     1       7.185  12.832  43.007  0.00  0.00    +0.000 C 
BRANCH  29  33
ATOM     33  O   UNL     1       5.868  15.497  44.048  0.00  0.00    +0.000 OA
ATOM     34  H   UNL     1       5.699  16.369  44.461  0.00  0.00    +0.000 HD
ENDBRANCH  29  33
BRANCH  31  35
ATOM     35  O   UNL     1       6.822  13.274  45.393  0.00  0.00    +0.000 OA
ATOM     36  H   UNL     1       6.237  13.982  45.719  0.00  0.00    +0.000 HD
ENDBRANCH  31  35
BRANCH  32  37
ATOM     37  O   UNL     1       8.014  11.683  43.129  0.00  0.00    +0.000 OA
ATOM     38  H   UNL     1       8.532  11.612  42.325  0.00  0.00    +0.000 HD
ENDBRANCH  32  37
BRANCH  30  39
ATOM     39  C   UNL     1       6.596  12.982  40.455  0.00  0.00    +0.000 C 
BRANCH  39  40
ATOM     40  O   UNL     1       6.620  11.570  40.305  0.00  0.00    +0.000 OA
ATOM     41  H   UNL     1       7.564  11.330  40.212  0.00  0.00    +0.000 HD
ENDBRANCH  39  40
ENDBRANCH  30  39
ENDBRANCH  26  27
ENDBRANCH   3  26
TORSDOF 12
ENDMDL
MODEL 19
REMARK VINA RESULT:    -5.249      1.706      4.856
REMARK INTER + INTRA:          -9.363
REMARK INTER:                  -7.510
REMARK INTRA:                  -1.853
REMARK UNBOUND:                -1.660
REMARK  Name = opt85.pdb
REMARK  12 active torsions:
REMARK  status: ('A' for Active; 'I' for Inactive)
REMARK    1  A    between atoms: C_3  and  O_5
REMARK    2  A    between atoms: O_5  and  C_9
REMARK    3  A    between atoms: C_6  and  C_11
REMARK    4  A    between atoms: C_8  and  O_13
REMARK    5  A    between atoms: C_16  and  O_21
REMARK    6  A    between atoms: C_19  and  O_25
REMARK    7  A    between atoms: C_20  and  C_27
REMARK    8  A    between atoms: C_22  and  O_28
REMARK    9  A    between atoms: C_23  and  O_29
REMARK   10  A    between atoms: C_26  and  O_31
REMARK   11  A    between atoms: C_27  and  O_32
REMARK   12  A    between atoms: C_30  and  O_33
REMARK                            x       y       z     vdW  Elec       q    Type
REMARK                         _______ _______ _______ _____ _____    ______ ____
ROOT
ATOM      1  O   UNL     1      12.891  17.058  44.077  0.00  0.00    +0.000 OA
ATOM      2  C   UNL     1      12.390  15.948  44.128  0.00  0.00    +0.000 A 
ATOM      3  C   UNL     1      10.943  15.695  43.824  0.00  0.00    +0.000 A 
ATOM      4  C   UNL     1      13.198  14.744  44.390  0.00  0.00    +0.000 A 
ATOM      5  C   UNL     1      10.562  14.609  43.829  0.00  0.00    +0.000 A 
ATOM      6  C   UNL     1      12.497  13.562  44.351  0.00  0.00    +0.000 A 
ATOM      7  C   UNL     1      14.634  14.691  44.575  0.00  0.00    +0.000 A 
ATOM      8  O   UNL     1      11.137  13.663  44.082  0.00  0.00    +0.000 OA
ATOM      9  C   UNL     1      13.218  12.296  44.435  0.00  0.00    +0.000 A 
ATOM     10  C   UNL     1      15.306  13.481  44.631  0.00  0.00    +0.000 A 
ATOM     11  C   UNL     1      14.613  12.284  44.559  0.00  0.00    +0.000 A 
ENDROOT
BRANCH   5  12
ATOM     12  C   UNL     1       9.227  14.069  43.307  0.00  0.00    +0.000 A 
ATOM     13  C   UNL     1       8.028  14.358  43.989  0.00  0.00    +0.000 A 
ATOM     14  C   UNL     1       9.095  13.327  42.110  0.00  0.00    +0.000 A 
ATOM     15  C   UNL     1       6.779  14.166  43.436  0.00  0.00    +0.000 A 
ATOM     16  C   UNL     1       7.830  13.031  41.589  0.00  0.00    +0.000 A 
ATOM     17  C   UNL     1       6.680  13.505  42.221  0.00  0.00    +0.000 A 
BRANCH  17  18
ATOM     18  O   UNL     1       5.451  13.372  41.666  0.00  0.00    +0.000 OA
ATOM     19  H   UNL     1       4.941  12.858  42.328  0.00  0.00    +0.000 HD
ENDBRANCH  17  18
BRANCH  15  20
ATOM     20  O   UNL     1       5.662  14.661  44.072  0.00  0.00    +0.000 OA
ATOM     21  H   UNL     1       5.887  15.301  44.791  0.00  0.00    +0.000 HD
ENDBRANCH  15  20
ENDBRANCH   5  12
BRANCH  11  22
ATOM     22  O   UNL     1      15.383  11.148  44.613  0.00  0.00    +0.000 OA
ATOM     23  H   UNL     1      16.286  11.256  44.295  0.00  0.00    +0.000 HD
ENDBRANCH  11  22
BRANCH   7  24
ATOM     24  O   UNL     1      15.409  15.801  44.649  0.00  0.00    +0.000 OA
ATOM     25  H   UNL     1      15.670  15.892  45.576  0.00  0.00    +0.000 HD
ENDBRANCH   7  24
BRANCH   3  26
ATOM     26  O   UNL     1      10.346  16.848  43.283  0.00  0.00    +0.000 OA
BRANCH  26  27
ATOM     27  C   UNL     1      10.369  17.313  41.891  0.00  0.00    +0.000 C 
ATOM     28  O   UNL     1       9.359  16.751  41.035  0.00  0.00    +0.000 OA
ATOM     29  C   UNL     1      10.312  18.841  41.697  0.00  0.00    +0.000 C 
ATOM     30  C   UNL     1       7.983  17.035  41.313  0.00  0.00    +0.000 C 
ATOM     31  C   UNL     1       8.904  19.390  42.008  0.00  0.00    +0.000 C 
ATOM     32  C   UNL     1       7.751  18.571  41.362  0.00  0.00    +0.000 C 
BRANCH  29  33
ATOM     33  O   UNL     1      10.673  19.130  40.330  0.00  0.00    +0.000 OA
ATOM     34  H   UNL     1      10.916  20.075  40.234  0.00  0.00    +0.000 HD
ENDBRANCH  29  33
BRANCH  31  35
ATOM     35  O   UNL     1       8.825  20.765  41.586  0.00  0.00    +0.000 OA
ATOM     36  H   UNL     1       8.810  21.357  42.360  0.00  0.00    +0.000 HD
ENDBRANCH  31  35
BRANCH  32  37
ATOM     37  O   UNL     1       6.624  18.801  42.198  0.00  0.00    +0.000 OA
ATOM     38  H   UNL     1       6.502  19.750  42.265  0.00  0.00    +0.000 HD
ENDBRANCH  32  37
BRANCH  30  39
ATOM     39  C   UNL     1       7.262  16.283  40.174  0.00  0.00    +0.000 C 
BRANCH  39  40
ATOM     40  O   UNL     1       5.853  16.256  40.343  0.00  0.00    +0.000 OA
ATOM     41  H   UNL     1       5.668  16.834  41.111  0.00  0.00    +0.000 HD
ENDBRANCH  39  40
ENDBRANCH  30  39
ENDBRANCH  26  27
ENDBRANCH   3  26
TORSDOF 12
ENDMDL
