MODEL 1
REMARK VINA RESULT:    -5.961      0.000      0.000
REMARK INTER + INTRA:          -8.243
REMARK INTER:                  -7.355
REMARK INTRA:                  -0.888
REMARK UNBOUND:                -0.888
REMARK  Name = opt48.pdb
REMARK  5 active torsions:
REMARK  status: ('A' for Active; 'I' for Inactive)
REMARK    1  A    between atoms: C_2  and  O_3
REMARK    2  A    between atoms: C_2  and  C_4
REMARK    3  A    between atoms: O_3  and  C_5
REMARK    4  A    between atoms: C_4  and  C_6
REMARK    5  A    between atoms: N_16  and  C_20
REMARK                            x       y       z     vdW  Elec       q    Type
REMARK                         _______ _______ _______ _____ _____    ______ ____
ROOT
ATOM      1  O   UNL     1      13.614  10.918  44.504  0.00  0.00    +0.000 OA
ATOM      2  C   UNL     1      13.489  12.109  44.289  0.00  0.00    +0.000 C 
ENDROOT
BRANCH   2   3
ATOM      3  C   UNL     1      14.498  12.882  43.511  0.00  0.00    +0.000 C 
ATOM      4  C   UNL     1      14.755  12.625  42.217  0.00  0.00    +0.000 C 
BRANCH   3   5
ATOM      5  C   UNL     1      15.213  13.961  44.225  0.00  0.00    +0.000 A 
ATOM      6  C   UNL     1      14.869  15.294  43.993  0.00  0.00    +0.000 A 
ATOM      7  C   UNL     1      16.227  13.658  45.136  0.00  0.00    +0.000 A 
ATOM      8  C   UNL     1      15.533  16.317  44.668  0.00  0.00    +0.000 A 
ATOM      9  C   UNL     1      16.891  14.682  45.810  0.00  0.00    +0.000 A 
ATOM     10  C   UNL     1      16.545  16.012  45.576  0.00  0.00    +0.000 A 
ENDBRANCH   3   5
ENDBRANCH   2   3
BRANCH   2  11
ATOM     11  O   UNL     1      12.432  12.845  44.715  0.00  0.00    +0.000 OA
BRANCH  11  12
ATOM     12  C   UNL     1      11.573  13.516  43.753  0.00  0.00    +0.000 C 
ATOM     13  C   UNL     1      10.564  12.523  43.108  0.00  0.00    +0.000 C 
ATOM     14  C   UNL     1      10.838  14.674  44.477  0.00  0.00    +0.000 C 
ATOM     15  C   UNL     1       9.408  13.275  42.385  0.00  0.00    +0.000 C 
ATOM     16  C   UNL     1       9.652  15.223  43.629  0.00  0.00    +0.000 C 
ATOM     17  N   UNL     1       8.683  14.152  43.324  0.00  0.00    +0.000 NA
ATOM     18  C   UNL     1       9.961  14.312  41.380  0.00  0.00    +0.000 C 
ATOM     19  C   UNL     1      10.118  15.611  42.208  0.00  0.00    +0.000 C 
ATOM     20  C   UNL     1       7.980  13.511  44.460  0.00  0.00    +0.000 C 
ENDBRANCH  11  12
ENDBRANCH   2  11
TORSDOF 4
ENDMDL
MODEL 2
REMARK VINA RESULT:    -5.960      0.292      1.115
REMARK INTER + INTRA:          -8.241
REMARK INTER:                  -7.364
REMARK INTRA:                  -0.878
REMARK UNBOUND:                -0.888
REMARK  Name = opt48.pdb
REMARK  5 active torsions:
REMARK  status: ('A' for Active; 'I' for Inactive)
REMARK    1  A    between atoms: C_2  and  O_3
REMARK    2  A    between atoms: C_2  and  C_4
REMARK    3  A    between atoms: O_3  and  C_5
REMARK    4  A    between atoms: C_4  and  C_6
REMARK    5  A    between atoms: N_16  and  C_20
REMARK                            x       y       z     vdW  Elec       q    Type
REMARK                         _______ _______ _______ _____ _____    ______ ____
ROOT
ATOM      1  O   UNL     1      13.960  10.700  44.399  0.00  0.00    +0.000 OA
ATOM      2  C   UNL     1      13.629  11.844  44.147  0.00  0.00    +0.000 C 
ENDROOT
BRANCH   2   3
ATOM      3  C   UNL     1      14.476  12.747  43.317  0.00  0.00    +0.000 C 
ATOM      4  C   UNL     1      14.625  12.573  41.992  0.00  0.00    +0.000 C 
BRANCH   3   5
ATOM      5  C   UNL     1      15.152  13.861  44.014  0.00  0.00    +0.000 A 
ATOM      6  C   UNL     1      16.074  13.589  45.026  0.00  0.00    +0.000 A 
ATOM      7  C   UNL     1      14.881  15.185  43.665  0.00  0.00    +0.000 A 
ATOM      8  C   UNL     1      16.722  14.634  45.684  0.00  0.00    +0.000 A 
ATOM      9  C   UNL     1      15.529  16.230  44.323  0.00  0.00    +0.000 A 
ATOM     10  C   UNL     1      16.450  15.954  45.333  0.00  0.00    +0.000 A 
ENDBRANCH   3   5
ENDBRANCH   2   3
BRANCH   2  11
ATOM     11  O   UNL     1      12.471  12.405  44.575  0.00  0.00    +0.000 OA
BRANCH  11  12
ATOM     12  C   UNL     1      11.672  13.215  43.670  0.00  0.00    +0.000 C 
ATOM     13  C   UNL     1      10.523  12.383  43.033  0.00  0.00    +0.000 C 
ATOM     14  C   UNL     1      11.116  14.428  44.460  0.00  0.00    +0.000 C 
ATOM     15  C   UNL     1       9.449  13.301  42.380  0.00  0.00    +0.000 C 
ATOM     16  C   UNL     1       9.982  15.154  43.677  0.00  0.00    +0.000 C 
ATOM     17  N   UNL     1       8.874  14.227  43.375  0.00  0.00    +0.000 NA
ATOM     18  C   UNL     1      10.094  14.297  41.389  0.00  0.00    +0.000 C 
ATOM     19  C   UNL     1      10.444  15.534  42.253  0.00  0.00    +0.000 C 
ATOM     20  C   UNL     1       8.134  13.637  44.516  0.00  0.00    +0.000 C 
ENDBRANCH  11  12
ENDBRANCH   2  11
TORSDOF 4
ENDMDL
MODEL 3
REMARK VINA RESULT:    -5.714      1.588      2.226
REMARK INTER + INTRA:          -7.938
REMARK INTER:                  -6.996
REMARK INTRA:                  -0.942
REMARK UNBOUND:                -0.888
REMARK  Name = opt48.pdb
REMARK  5 active torsions:
REMARK  status: ('A' for Active; 'I' for Inactive)
REMARK    1  A    between atoms: C_2  and  O_3
REMARK    2  A    between atoms: C_2  and  C_4
REMARK    3  A    between atoms: O_3  and  C_5
REMARK    4  A    between atoms: C_4  and  C_6
REMARK    5  A    between atoms: N_16  and  C_20
REMARK                            x       y       z     vdW  Elec       q    Type
REMARK                         _______ _______ _______ _____ _____    ______ ____
ROOT
ATOM      1  O   UNL     1      13.423  12.918  45.551  0.00  0.00    +0.000 OA
ATOM      2  C   UNL     1      13.161  13.288  44.421  0.00  0.00    +0.000 C 
ENDROOT
BRANCH   2   3
ATOM      3  C   UNL     1      13.905  14.397  43.760  0.00  0.00    +0.000 C 
ATOM      4  C   UNL     1      14.608  14.215  42.628  0.00  0.00    +0.000 C 
BRANCH   3   5
ATOM      5  C   UNL     1      13.838  15.726  44.403  0.00  0.00    +0.000 A 
ATOM      6  C   UNL     1      15.015  16.422  44.684  0.00  0.00    +0.000 A 
ATOM      7  C   UNL     1      12.605  16.294  44.728  0.00  0.00    +0.000 A 
ATOM      8  C   UNL     1      14.960  17.679  45.284  0.00  0.00    +0.000 A 
ATOM      9  C   UNL     1      12.550  17.552  45.328  0.00  0.00    +0.000 A 
ATOM     10  C   UNL     1      13.728  18.244  45.606  0.00  0.00    +0.000 A 
ENDBRANCH   3   5
ENDBRANCH   2   3
BRANCH   2  11
ATOM     11  O   UNL     1      12.194  12.730  43.651  0.00  0.00    +0.000 OA
BRANCH  11  12
ATOM     12  C   UNL     1      11.046  13.519  43.234  0.00  0.00    +0.000 C 
ATOM     13  C   UNL     1      10.343  12.884  42.000  0.00  0.00    +0.000 C 
ATOM     14  C   UNL     1      10.072  13.638  44.435  0.00  0.00    +0.000 C 
ATOM     15  C   UNL     1       8.922  13.481  41.784  0.00  0.00    +0.000 C 
ATOM     16  C   UNL     1       8.672  14.160  43.992  0.00  0.00    +0.000 C 
ATOM     17  N   UNL     1       8.077  13.272  42.975  0.00  0.00    +0.000 NA
ATOM     18  C   UNL     1       8.969  15.026  41.724  0.00  0.00    +0.000 C 
ATOM     19  C   UNL     1       8.797  15.477  43.195  0.00  0.00    +0.000 C 
ATOM     20  C   UNL     1       7.776  11.874  43.367  0.00  0.00    +0.000 C 
ENDBRANCH  11  12
ENDBRANCH   2  11
TORSDOF 4
ENDMDL
MODEL 4
REMARK VINA RESULT:    -5.577      2.223      3.565
REMARK INTER + INTRA:          -7.769
REMARK INTER:                  -6.903
REMARK INTRA:                  -0.867
REMARK UNBOUND:                -0.888
REMARK  Name = opt48.pdb
REMARK  5 active torsions:
REMARK  status: ('A' for Active; 'I' for Inactive)
REMARK    1  A    between atoms: C_2  and  O_3
REMARK    2  A    between atoms: C_2  and  C_4
REMARK    3  A    between atoms: O_3  and  C_5
REMARK    4  A    between atoms: C_4  and  C_6
REMARK    5  A    between atoms: N_16  and  C_20
REMARK                            x       y       z     vdW  Elec       q    Type
REMARK                         _______ _______ _______ _____ _____    ______ ____
ROOT
ATOM      1  O   UNL     1      16.697  13.702  46.525  0.00  0.00    +0.000 OA
ATOM      2  C   UNL     1      16.539  14.001  45.355  0.00  0.00    +0.000 C 
ENDROOT
BRANCH   2   3
ATOM      3  C   UNL     1      17.375  15.036  44.684  0.00  0.00    +0.000 C 
ATOM      4  C   UNL     1      18.104  14.768  43.587  0.00  0.00    +0.000 C 
BRANCH   3   5
ATOM      5  C   UNL     1      17.369  16.390  45.277  0.00  0.00    +0.000 A 
ATOM      6  C   UNL     1      18.576  17.026  45.568  0.00  0.00    +0.000 A 
ATOM      7  C   UNL     1      16.163  17.042  45.544  0.00  0.00    +0.000 A 
ATOM      8  C   UNL     1      18.580  18.306  46.120  0.00  0.00    +0.000 A 
ATOM      9  C   UNL     1      16.167  18.322  46.096  0.00  0.00    +0.000 A 
ATOM     10  C   UNL     1      17.375  18.954  46.385  0.00  0.00    +0.000 A 
ENDBRANCH   3   5
ENDBRANCH   2   3
BRANCH   2  11
ATOM     11  O   UNL     1      15.613  13.425  44.549  0.00  0.00    +0.000 OA
BRANCH  11  12
ATOM     12  C   UNL     1      14.357  14.103  44.275  0.00  0.00    +0.000 C 
ATOM     13  C   UNL     1      14.010  14.059  42.759  0.00  0.00    +0.000 C 
ATOM     14  C   UNL     1      13.245  13.436  45.125  0.00  0.00    +0.000 C 
ATOM     15  C   UNL     1      12.519  14.428  42.505  0.00  0.00    +0.000 C 
ATOM     16  C   UNL     1      11.823  13.859  44.648  0.00  0.00    +0.000 C 
ATOM     17  N   UNL     1      11.620  13.509  43.228  0.00  0.00    +0.000 NA
ATOM     18  C   UNL     1      12.158  15.777  43.167  0.00  0.00    +0.000 C 
ATOM     19  C   UNL     1      11.688  15.397  44.594  0.00  0.00    +0.000 C 
ATOM     20  C   UNL     1      11.658  12.075  42.856  0.00  0.00    +0.000 C 
ENDBRANCH  11  12
ENDBRANCH   2  11
TORSDOF 4
ENDMDL
MODEL 5
REMARK VINA RESULT:    -5.554      1.560      2.087
REMARK INTER + INTRA:          -7.741
REMARK INTER:                  -7.341
REMARK INTRA:                  -0.399
REMARK UNBOUND:                -0.888
REMARK  Name = opt48.pdb
REMARK  5 active torsions:
REMARK  status: ('A' for Active; 'I' for Inactive)
REMARK    1  A    between atoms: C_2  and  O_3
REMARK    2  A    between atoms: C_2  and  C_4
REMARK    3  A    between atoms: O_3  and  C_5
REMARK    4  A    between atoms: C_4  and  C_6
REMARK    5  A    between atoms: N_16  and  C_20
REMARK                            x       y       z     vdW  Elec       q    Type
REMARK                         _______ _______ _______ _____ _____    ______ ____
ROOT
ATOM      1  O   UNL     1      12.638  14.599  44.516  0.00  0.00    +0.000 OA
ATOM      2  C   UNL     1      12.719  13.475  44.055  0.00  0.00    +0.000 C 
ENDROOT
BRANCH   2   3
ATOM      3  C   UNL     1      13.939  12.637  44.225  0.00  0.00    +0.000 C 
ATOM      4  C   UNL     1      13.885  11.295  44.291  0.00  0.00    +0.000 C 
BRANCH   3   5
ATOM      5  C   UNL     1      15.233  13.347  44.314  0.00  0.00    +0.000 A 
ATOM      6  C   UNL     1      15.758  13.678  45.563  0.00  0.00    +0.000 A 
ATOM      7  C   UNL     1      15.937  13.686  43.156  0.00  0.00    +0.000 A 
ATOM      8  C   UNL     1      16.981  14.341  45.657  0.00  0.00    +0.000 A 
ATOM      9  C   UNL     1      17.160  14.349  43.250  0.00  0.00    +0.000 A 
ATOM     10  C   UNL     1      17.682  14.678  44.500  0.00  0.00    +0.000 A 
ENDBRANCH   3   5
ENDBRANCH   2   3
BRANCH   2  11
ATOM     11  O   UNL     1      11.720  12.870  43.365  0.00  0.00    +0.000 OA
BRANCH  11  12
ATOM     12  C   UNL     1      10.470  13.570  43.121  0.00  0.00    +0.000 C 
ATOM     13  C   UNL     1       9.749  13.016  41.859  0.00  0.00    +0.000 C 
ATOM     14  C   UNL     1       9.579  13.434  44.383  0.00  0.00    +0.000 C 
ATOM     15  C   UNL     1       8.262  13.473  41.806  0.00  0.00    +0.000 C 
ATOM     16  C   UNL     1       8.105  13.847  44.094  0.00  0.00    +0.000 C 
ATOM     17  N   UNL     1       7.532  13.028  43.009  0.00  0.00    +0.000 NA
ATOM     18  C   UNL     1       8.145  15.009  41.942  0.00  0.00    +0.000 C 
ATOM     19  C   UNL     1       8.035  15.257  43.467  0.00  0.00    +0.000 C 
ATOM     20  C   UNL     1       7.405  11.569  43.235  0.00  0.00    +0.000 C 
ENDBRANCH  11  12
ENDBRANCH   2  11
TORSDOF 4
ENDMDL
MODEL 6
REMARK VINA RESULT:    -5.481      2.221      3.360
REMARK INTER + INTRA:          -7.650
REMARK INTER:                  -7.006
REMARK INTRA:                  -0.644
REMARK UNBOUND:                -0.888
REMARK  Name = opt48.pdb
REMARK  5 active torsions:
REMARK  status: ('A' for Active; 'I' for Inactive)
REMARK    1  A    between atoms: C_2  and  O_3
REMARK    2  A    between atoms: C_2  and  C_4
REMARK    3  A    between atoms: O_3  and  C_5
REMARK    4  A    between atoms: C_4  and  C_6
REMARK    5  A    between atoms: N_16  and  C_20
REMARK                            x       y       z     vdW  Elec       q    Type
REMARK                         _______ _______ _______ _____ _____    ______ ____
ROOT
ATOM      1  O   UNL     1      10.946  11.363  42.077  0.00  0.00    +0.000 OA
ATOM      2  C   UNL     1      10.754  12.405  42.676  0.00  0.00    +0.000 C 
ENDROOT
BRANCH   2   3
ATOM      3  C   UNL     1      11.681  13.565  42.561  0.00  0.00    +0.000 C 
ATOM      4  C   UNL     1      11.371  14.663  41.849  0.00  0.00    +0.000 C 
BRANCH   3   5
ATOM      5  C   UNL     1      12.972  13.465  43.273  0.00  0.00    +0.000 A 
ATOM      6  C   UNL     1      14.161  13.381  42.547  0.00  0.00    +0.000 A 
ATOM      7  C   UNL     1      13.013  13.460  44.669  0.00  0.00    +0.000 A 
ATOM      8  C   UNL     1      15.383  13.294  43.211  0.00  0.00    +0.000 A 
ATOM      9  C   UNL     1      14.237  13.373  45.333  0.00  0.00    +0.000 A 
ATOM     10  C   UNL     1      15.422  13.289  44.604  0.00  0.00    +0.000 A 
ENDBRANCH   3   5
ENDBRANCH   2   3
BRANCH   2  11
ATOM     11  O   UNL     1       9.688  12.622  43.486  0.00  0.00    +0.000 OA
BRANCH  11  12
ATOM     12  C   UNL     1       8.370  12.851  42.916  0.00  0.00    +0.000 C 
ATOM     13  C   UNL     1       7.366  11.747  43.355  0.00  0.00    +0.000 C 
ATOM     14  C   UNL     1       7.885  14.258  43.353  0.00  0.00    +0.000 C 
ATOM     15  C   UNL     1       5.894  12.175  43.082  0.00  0.00    +0.000 C 
ATOM     16  C   UNL     1       6.363  14.451  43.085  0.00  0.00    +0.000 C 
ATOM     17  N   UNL     1       5.570  13.427  43.793  0.00  0.00    +0.000 NA
ATOM     18  C   UNL     1       5.704  12.613  41.612  0.00  0.00    +0.000 C 
ATOM     19  C   UNL     1       6.011  14.132  41.616  0.00  0.00    +0.000 C 
ATOM     20  C   UNL     1       5.624  13.410  45.274  0.00  0.00    +0.000 C 
ENDBRANCH  11  12
ENDBRANCH   2  11
TORSDOF 4
ENDMDL
MODEL 7
REMARK VINA RESULT:    -5.451      1.895      3.106
REMARK INTER + INTRA:          -7.613
REMARK INTER:                  -7.139
REMARK INTRA:                  -0.474
REMARK UNBOUND:                -0.888
REMARK  Name = opt48.pdb
REMARK  5 active torsions:
REMARK  status: ('A' for Active; 'I' for Inactive)
REMARK    1  A    between atoms: C_2  and  O_3
REMARK    2  A    between atoms: C_2  and  C_4
REMARK    3  A    between atoms: O_3  and  C_5
REMARK    4  A    between atoms: C_4  and  C_6
REMARK    5  A    between atoms: N_16  and  C_20
REMARK                            x       y       z     vdW  Elec       q    Type
REMARK                         _______ _______ _______ _____ _____    ______ ____
ROOT
ATOM      1  O   UNL     1      11.504  11.564  43.318  0.00  0.00    +0.000 OA
ATOM      2  C   UNL     1      11.306  12.751  43.138  0.00  0.00    +0.000 C 
ENDROOT
BRANCH   2   3
ATOM      3  C   UNL     1      11.987  13.798  43.952  0.00  0.00    +0.000 C 
ATOM      4  C   UNL     1      11.304  14.751  44.610  0.00  0.00    +0.000 C 
BRANCH   3   5
ATOM      5  C   UNL     1      13.463  13.745  44.013  0.00  0.00    +0.000 A 
ATOM      6  C   UNL     1      14.210  13.858  42.840  0.00  0.00    +0.000 A 
ATOM      7  C   UNL     1      14.117  13.589  45.237  0.00  0.00    +0.000 A 
ATOM      8  C   UNL     1      15.603  13.817  42.889  0.00  0.00    +0.000 A 
ATOM      9  C   UNL     1      15.510  13.548  45.285  0.00  0.00    +0.000 A 
ATOM     10  C   UNL     1      16.253  13.662  44.111  0.00  0.00    +0.000 A 
ENDBRANCH   3   5
ENDBRANCH   2   3
BRANCH   2  11
ATOM     11  O   UNL     1      10.472  13.241  42.187  0.00  0.00    +0.000 OA
BRANCH  11  12
ATOM     12  C   UNL     1       9.073  12.848  42.169  0.00  0.00    +0.000 C 
ATOM     13  C   UNL     1       8.557  12.530  43.602  0.00  0.00    +0.000 C 
ATOM     14  C   UNL     1       8.252  13.991  41.517  0.00  0.00    +0.000 C 
ATOM     15  C   UNL     1       7.002  12.487  43.651  0.00  0.00    +0.000 C 
ATOM     16  C   UNL     1       6.724  13.816  41.765  0.00  0.00    +0.000 C 
ATOM     17  N   UNL     1       6.426  13.772  43.210  0.00  0.00    +0.000 NA
ATOM     18  C   UNL     1       6.436  11.527  42.579  0.00  0.00    +0.000 C 
ATOM     19  C   UNL     1       6.245  12.415  41.324  0.00  0.00    +0.000 C 
ATOM     20  C   UNL     1       6.735  14.976  44.017  0.00  0.00    +0.000 C 
ENDBRANCH  11  12
ENDBRANCH   2  11
TORSDOF 4
ENDMDL
MODEL 8
REMARK VINA RESULT:    -5.450      2.029      6.611
REMARK INTER + INTRA:          -7.612
REMARK INTER:                  -7.288
REMARK INTRA:                  -0.324
REMARK UNBOUND:                -0.888
REMARK  Name = opt48.pdb
REMARK  5 active torsions:
REMARK  status: ('A' for Active; 'I' for Inactive)
REMARK    1  A    between atoms: C_2  and  O_3
REMARK    2  A    between atoms: C_2  and  C_4
REMARK    3  A    between atoms: O_3  and  C_5
REMARK    4  A    between atoms: C_4  and  C_6
REMARK    5  A    between atoms: N_16  and  C_20
REMARK                            x       y       z     vdW  Elec       q    Type
REMARK                         _______ _______ _______ _____ _____    ______ ____
ROOT
ATOM      1  O   UNL     1      10.990  11.862  42.997  0.00  0.00    +0.000 OA
ATOM      2  C   UNL     1      10.615  12.876  43.556  0.00  0.00    +0.000 C 
ENDROOT
BRANCH   2   3
ATOM      3  C   UNL     1       9.445  13.660  43.070  0.00  0.00    +0.000 C 
ATOM      4  C   UNL     1       9.576  14.688  42.213  0.00  0.00    +0.000 C 
BRANCH   3   5
ATOM      5  C   UNL     1       8.113  13.258  43.570  0.00  0.00    +0.000 A 
ATOM      6  C   UNL     1       7.524  13.962  44.621  0.00  0.00    +0.000 A 
ATOM      7  C   UNL     1       7.437  12.179  42.996  0.00  0.00    +0.000 A 
ATOM      8  C   UNL     1       6.265  13.593  45.093  0.00  0.00    +0.000 A 
ATOM      9  C   UNL     1       6.178  11.811  43.469  0.00  0.00    +0.000 A 
ATOM     10  C   UNL     1       5.592  12.517  44.518  0.00  0.00    +0.000 A 
ENDBRANCH   3   5
ENDBRANCH   2   3
BRANCH   2  11
ATOM     11  O   UNL     1      11.202  13.384  44.669  0.00  0.00    +0.000 OA
BRANCH  11  12
ATOM     12  C   UNL     1      12.634  13.628  44.694  0.00  0.00    +0.000 C 
ATOM     13  C   UNL     1      13.435  12.298  44.593  0.00  0.00    +0.000 C 
ATOM     14  C   UNL     1      12.988  14.587  43.528  0.00  0.00    +0.000 C 
ATOM     15  C   UNL     1      14.927  12.558  44.234  0.00  0.00    +0.000 C 
ATOM     16  C   UNL     1      14.523  14.630  43.263  0.00  0.00    +0.000 C 
ATOM     17  N   UNL     1      15.042  13.283  42.954  0.00  0.00    +0.000 NA
ATOM     18  C   UNL     1      15.567  13.574  45.207  0.00  0.00    +0.000 C 
ATOM     19  C   UNL     1      15.302  14.955  44.557  0.00  0.00    +0.000 C 
ATOM     20  C   UNL     1      14.536  12.609  41.735  0.00  0.00    +0.000 C 
ENDBRANCH  11  12
ENDBRANCH   2  11
TORSDOF 4
ENDMDL
MODEL 9
REMARK VINA RESULT:    -5.403      2.668      3.559
REMARK INTER + INTRA:          -7.554
REMARK INTER:                  -6.774
REMARK INTRA:                  -0.781
REMARK UNBOUND:                -0.888
REMARK  Name = opt48.pdb
REMARK  5 active torsions:
REMARK  status: ('A' for Active; 'I' for Inactive)
REMARK    1  A    between atoms: C_2  and  O_3
REMARK    2  A    between atoms: C_2  and  C_4
REMARK    3  A    between atoms: O_3  and  C_5
REMARK    4  A    between atoms: C_4  and  C_6
REMARK    5  A    between atoms: N_16  and  C_20
REMARK                            x       y       z     vdW  Elec       q    Type
REMARK                         _______ _______ _______ _____ _____    ______ ____
ROOT
ATOM      1  O   UNL     1      11.430  11.511  40.809  0.00  0.00    +0.000 OA
ATOM      2  C   UNL     1      11.259  12.391  41.632  0.00  0.00    +0.000 C 
ENDROOT
BRANCH   2   3
ATOM      3  C   UNL     1      12.159  12.560  42.807  0.00  0.00    +0.000 C 
ATOM      4  C   UNL     1      12.737  11.514  43.424  0.00  0.00    +0.000 C 
BRANCH   3   5
ATOM      5  C   UNL     1      12.402  13.941  43.274  0.00  0.00    +0.000 A 
ATOM      6  C   UNL     1      13.350  14.736  42.629  0.00  0.00    +0.000 A 
ATOM      7  C   UNL     1      11.685  14.460  44.355  0.00  0.00    +0.000 A 
ATOM      8  C   UNL     1      13.580  16.042  43.058  0.00  0.00    +0.000 A 
ATOM      9  C   UNL     1      11.915  15.767  44.784  0.00  0.00    +0.000 A 
ATOM     10  C   UNL     1      12.863  16.558  44.135  0.00  0.00    +0.000 A 
ENDBRANCH   3   5
ENDBRANCH   2   3
BRANCH   2  11
ATOM     11  O   UNL     1      10.258  13.304  41.563  0.00  0.00    +0.000 OA
BRANCH  11  12
ATOM     12  C   UNL     1       8.879  12.896  41.775  0.00  0.00    +0.000 C 
ATOM     13  C   UNL     1       8.682  12.291  43.194  0.00  0.00    +0.000 C 
ATOM     14  C   UNL     1       7.965  14.130  41.558  0.00  0.00    +0.000 C 
ATOM     15  C   UNL     1       7.174  12.210  43.574  0.00  0.00    +0.000 C 
ATOM     16  C   UNL     1       6.524  13.881  42.095  0.00  0.00    +0.000 C 
ATOM     17  N   UNL     1       6.549  13.546  43.532  0.00  0.00    +0.000 NA
ATOM     18  C   UNL     1       6.364  11.471  42.484  0.00  0.00    +0.000 C 
ATOM     19  C   UNL     1       5.926  12.586  41.502  0.00  0.00    +0.000 C 
ATOM     20  C   UNL     1       7.057  14.572  44.473  0.00  0.00    +0.000 C 
ENDBRANCH  11  12
ENDBRANCH   2  11
TORSDOF 4
ENDMDL
MODEL 10
REMARK VINA RESULT:    -5.396      1.122      2.223
REMARK INTER + INTRA:          -7.545
REMARK INTER:                  -6.933
REMARK INTRA:                  -0.612
REMARK UNBOUND:                -0.888
REMARK  Name = opt48.pdb
REMARK  5 active torsions:
REMARK  status: ('A' for Active; 'I' for Inactive)
REMARK    1  A    between atoms: C_2  and  O_3
REMARK    2  A    between atoms: C_2  and  C_4
REMARK    3  A    between atoms: O_3  and  C_5
REMARK    4  A    between atoms: C_4  and  C_6
REMARK    5  A    between atoms: N_16  and  C_20
REMARK                            x       y       z     vdW  Elec       q    Type
REMARK                         _______ _______ _______ _____ _____    ______ ____
ROOT
ATOM      1  O   UNL     1      12.398  11.146  43.654  0.00  0.00    +0.000 OA
ATOM      2  C   UNL     1      12.610  12.327  43.445  0.00  0.00    +0.000 C 
ENDROOT
BRANCH   2   3
ATOM      3  C   UNL     1      13.910  12.812  42.900  0.00  0.00    +0.000 C 
ATOM      4  C   UNL     1      14.332  12.495  41.663  0.00  0.00    +0.000 C 
BRANCH   3   5
ATOM      5  C   UNL     1      14.728  13.671  43.782  0.00  0.00    +0.000 A 
ATOM      6  C   UNL     1      15.447  13.101  44.834  0.00  0.00    +0.000 A 
ATOM      7  C   UNL     1      14.792  15.049  43.568  0.00  0.00    +0.000 A 
ATOM      8  C   UNL     1      16.227  13.903  45.665  0.00  0.00    +0.000 A 
ATOM      9  C   UNL     1      15.573  15.851  44.400  0.00  0.00    +0.000 A 
ATOM     10  C   UNL     1      16.290  15.278  45.450  0.00  0.00    +0.000 A 
ENDBRANCH   3   5
ENDBRANCH   2   3
BRANCH   2  11
ATOM     11  O   UNL     1      11.700  13.307  43.668  0.00  0.00    +0.000 OA
BRANCH  11  12
ATOM     12  C   UNL     1      10.288  13.064  43.420  0.00  0.00    +0.000 C 
ATOM     13  C   UNL     1       9.413  13.568  44.603  0.00  0.00    +0.000 C 
ATOM     14  C   UNL     1       9.897  13.765  42.093  0.00  0.00    +0.000 C 
ATOM     15  C   UNL     1       7.913  13.670  44.198  0.00  0.00    +0.000 C 
ATOM     16  C   UNL     1       8.351  13.855  41.924  0.00  0.00    +0.000 C 
ATOM     17  N   UNL     1       7.739  14.583  43.052  0.00  0.00    +0.000 NA
ATOM     18  C   UNL     1       7.406  12.340  43.595  0.00  0.00    +0.000 C 
ATOM     19  C   UNL     1       7.692  12.467  42.078  0.00  0.00    +0.000 C 
ATOM     20  C   UNL     1       8.113  16.005  43.243  0.00  0.00    +0.000 C 
ENDBRANCH  11  12
ENDBRANCH   2  11
TORSDOF 4
ENDMDL
MODEL 11
REMARK VINA RESULT:    -5.372      2.132      3.404
REMARK INTER + INTRA:          -7.516
REMARK INTER:                  -6.889
REMARK INTRA:                  -0.626
REMARK UNBOUND:                -0.888
REMARK  Name = opt48.pdb
REMARK  5 active torsions:
REMARK  status: ('A' for Active; 'I' for Inactive)
REMARK    1  A    between atoms: C_2  and  O_3
REMARK    2  A    between atoms: C_2  and  C_4
REMARK    3  A    between atoms: O_3  and  C_5
REMARK    4  A    between atoms: C_4  and  C_6
REMARK    5  A    between atoms: N_16  and  C_20
REMARK                            x       y       z     vdW  Elec       q    Type
REMARK                         _______ _______ _______ _____ _____    ______ ____
ROOT
ATOM      1  O   UNL     1      10.964  14.901  42.896  0.00  0.00    +0.000 OA
ATOM      2  C   UNL     1      10.785  13.794  43.369  0.00  0.00    +0.000 C 
ENDROOT
BRANCH   2   3
ATOM      3  C   UNL     1      11.786  12.700  43.221  0.00  0.00    +0.000 C 
ATOM      4  C   UNL     1      11.470  11.505  42.693  0.00  0.00    +0.000 C 
BRANCH   3   5
ATOM      5  C   UNL     1      13.162  12.984  43.680  0.00  0.00    +0.000 A 
ATOM      6  C   UNL     1      14.201  13.061  42.752  0.00  0.00    +0.000 A 
ATOM      7  C   UNL     1      13.430  13.182  45.036  0.00  0.00    +0.000 A 
ATOM      8  C   UNL     1      15.501  13.335  43.176  0.00  0.00    +0.000 A 
ATOM      9  C   UNL     1      14.731  13.456  45.460  0.00  0.00    +0.000 A 
ATOM     10  C   UNL     1      15.766  13.532  44.529  0.00  0.00    +0.000 A 
ENDBRANCH   3   5
ENDBRANCH   2   3
BRANCH   2  11
ATOM     11  O   UNL     1       9.683  13.447  44.080  0.00  0.00    +0.000 OA
BRANCH  11  12
ATOM     12  C   UNL     1       8.357  13.656  43.523  0.00  0.00    +0.000 C 
ATOM     13  C   UNL     1       8.107  12.727  42.300  0.00  0.00    +0.000 C 
ATOM     14  C   UNL     1       7.311  13.407  44.640  0.00  0.00    +0.000 C 
ATOM     15  C   UNL     1       6.594  12.656  41.938  0.00  0.00    +0.000 C 
ATOM     16  C   UNL     1       5.871  13.267  44.061  0.00  0.00    +0.000 C 
ATOM     17  N   UNL     1       5.803  12.164  43.082  0.00  0.00    +0.000 NA
ATOM     18  C   UNL     1       5.998  14.071  41.754  0.00  0.00    +0.000 C 
ATOM     19  C   UNL     1       5.511  14.475  43.168  0.00  0.00    +0.000 C 
ATOM     20  C   UNL     1       6.077  10.790  43.567  0.00  0.00    +0.000 C 
ENDBRANCH  11  12
ENDBRANCH   2  11
TORSDOF 4
ENDMDL
MODEL 12
REMARK VINA RESULT:    -5.347      2.557      6.506
REMARK INTER + INTRA:          -7.485
REMARK INTER:                  -6.621
REMARK INTRA:                  -0.864
REMARK UNBOUND:                -0.888
REMARK  Name = opt48.pdb
REMARK  5 active torsions:
REMARK  status: ('A' for Active; 'I' for Inactive)
REMARK    1  A    between atoms: C_2  and  O_3
REMARK    2  A    between atoms: C_2  and  C_4
REMARK    3  A    between atoms: O_3  and  C_5
REMARK    4  A    between atoms: C_4  and  C_6
REMARK    5  A    between atoms: N_16  and  C_20
REMARK                            x       y       z     vdW  Elec       q    Type
REMARK                         _______ _______ _______ _____ _____    ______ ____
ROOT
ATOM      1  O   UNL     1       8.832  12.477  41.516  0.00  0.00    +0.000 OA
ATOM      2  C   UNL     1       8.767  12.506  42.731  0.00  0.00    +0.000 C 
ENDROOT
BRANCH   2   3
ATOM      3  C   UNL     1       7.464  12.488  43.453  0.00  0.00    +0.000 C 
ATOM      4  C   UNL     1       6.681  11.395  43.492  0.00  0.00    +0.000 C 
BRANCH   3   5
ATOM      5  C   UNL     1       7.059  13.733  44.139  0.00  0.00    +0.000 A 
ATOM      6  C   UNL     1       6.477  13.670  45.406  0.00  0.00    +0.000 A 
ATOM      7  C   UNL     1       7.258  14.974  43.531  0.00  0.00    +0.000 A 
ATOM      8  C   UNL     1       6.099  14.839  46.063  0.00  0.00    +0.000 A 
ATOM      9  C   UNL     1       6.880  16.144  44.189  0.00  0.00    +0.000 A 
ATOM     10  C   UNL     1       6.300  16.077  45.455  0.00  0.00    +0.000 A 
ENDBRANCH   3   5
ENDBRANCH   2   3
BRANCH   2  11
ATOM     11  O   UNL     1       9.852  12.543  43.543  0.00  0.00    +0.000 OA
BRANCH  11  12
ATOM     12  C   UNL     1      10.847  13.592  43.389  0.00  0.00    +0.000 C 
ATOM     13  C   UNL     1      11.126  14.309  44.741  0.00  0.00    +0.000 C 
ATOM     14  C   UNL     1      12.140  12.960  42.810  0.00  0.00    +0.000 C 
ATOM     15  C   UNL     1      12.435  15.149  44.680  0.00  0.00    +0.000 C 
ATOM     16  C   UNL     1      13.357  13.924  42.934  0.00  0.00    +0.000 C 
ATOM     17  N   UNL     1      13.592  14.297  44.342  0.00  0.00    +0.000 NA
ATOM     18  C   UNL     1      12.421  16.118  43.475  0.00  0.00    +0.000 C 
ATOM     19  C   UNL     1      13.041  15.302  42.313  0.00  0.00    +0.000 C 
ATOM     20  C   UNL     1      13.952  13.220  45.294  0.00  0.00    +0.000 C 
ENDBRANCH  11  12
ENDBRANCH   2  11
TORSDOF 4
ENDMDL
MODEL 13
REMARK VINA RESULT:    -5.331      1.978      2.877
REMARK INTER + INTRA:          -7.466
REMARK INTER:                  -6.790
REMARK INTRA:                  -0.676
REMARK UNBOUND:                -0.888
REMARK  Name = opt48.pdb
REMARK  5 active torsions:
REMARK  status: ('A' for Active; 'I' for Inactive)
REMARK    1  A    between atoms: C_2  and  O_3
REMARK    2  A    between atoms: C_2  and  C_4
REMARK    3  A    between atoms: O_3  and  C_5
REMARK    4  A    between atoms: C_4  and  C_6
REMARK    5  A    between atoms: N_16  and  C_20
REMARK                            x       y       z     vdW  Elec       q    Type
REMARK                         _______ _______ _______ _____ _____    ______ ____
ROOT
ATOM      1  O   UNL     1      11.994  13.206  41.939  0.00  0.00    +0.000 OA
ATOM      2  C   UNL     1      11.800  13.122  43.138  0.00  0.00    +0.000 C 
ENDROOT
BRANCH   2   3
ATOM      3  C   UNL     1      12.863  13.434  44.135  0.00  0.00    +0.000 C 
ATOM      4  C   UNL     1      13.588  12.473  44.735  0.00  0.00    +0.000 C 
BRANCH   3   5
ATOM      5  C   UNL     1      13.098  14.861  44.441  0.00  0.00    +0.000 A 
ATOM      6  C   UNL     1      14.403  15.354  44.493  0.00  0.00    +0.000 A 
ATOM      7  C   UNL     1      12.024  15.722  44.673  0.00  0.00    +0.000 A 
ATOM      8  C   UNL     1      14.633  16.700  44.774  0.00  0.00    +0.000 A 
ATOM      9  C   UNL     1      12.255  17.069  44.953  0.00  0.00    +0.000 A 
ATOM     10  C   UNL     1      13.559  17.557  45.005  0.00  0.00    +0.000 A 
ENDBRANCH   3   5
ENDBRANCH   2   3
BRANCH   2  11
ATOM     11  O   UNL     1      10.614  12.758  43.686  0.00  0.00    +0.000 OA
BRANCH  11  12
ATOM     12  C   UNL     1       9.404  13.502  43.372  0.00  0.00    +0.000 C 
ATOM     13  C   UNL     1       8.616  12.832  42.210  0.00  0.00    +0.000 C 
ATOM     14  C   UNL     1       8.540  13.595  44.657  0.00  0.00    +0.000 C 
ATOM     15  C   UNL     1       7.160  13.377  42.123  0.00  0.00    +0.000 C 
ATOM     16  C   UNL     1       7.088  14.063  44.341  0.00  0.00    +0.000 C 
ATOM     17  N   UNL     1       6.435  13.146  43.387  0.00  0.00    +0.000 NA
ATOM     18  C   UNL     1       7.145  14.921  42.051  0.00  0.00    +0.000 C 
ATOM     19  C   UNL     1       7.091  15.378  43.530  0.00  0.00    +0.000 C 
ATOM     20  C   UNL     1       6.223  11.742  43.811  0.00  0.00    +0.000 C 
ENDBRANCH  11  12
ENDBRANCH   2  11
TORSDOF 4
ENDMDL
MODEL 14
REMARK VINA RESULT:    -5.286      2.408      6.659
REMARK INTER + INTRA:          -7.410
REMARK INTER:                  -6.768
REMARK INTRA:                  -0.642
REMARK UNBOUND:                -0.888
REMARK  Name = opt48.pdb
REMARK  5 active torsions:
REMARK  status: ('A' for Active; 'I' for Inactive)
REMARK    1  A    between atoms: C_2  and  O_3
REMARK    2  A    between atoms: C_2  and  C_4
REMARK    3  A    between atoms: O_3  and  C_5
REMARK    4  A    between atoms: C_4  and  C_6
REMARK    5  A    between atoms: N_16  and  C_20
REMARK                            x       y       z     vdW  Elec       q    Type
REMARK                         _______ _______ _______ _____ _____    ______ ____
ROOT
ATOM      1  O   UNL     1      10.030  11.363  42.595  0.00  0.00    +0.000 OA
ATOM      2  C   UNL     1      10.262  12.493  42.208  0.00  0.00    +0.000 C 
ENDROOT
BRANCH   2   3
ATOM      3  C   UNL     1       9.195  13.528  42.108  0.00  0.00    +0.000 C 
ATOM      4  C   UNL     1       9.315  14.609  41.317  0.00  0.00    +0.000 C 
BRANCH   3   5
ATOM      5  C   UNL     1       7.978  13.318  42.920  0.00  0.00    +0.000 A 
ATOM      6  C   UNL     1       6.898  12.616  42.383  0.00  0.00    +0.000 A 
ATOM      7  C   UNL     1       7.902  13.811  44.225  0.00  0.00    +0.000 A 
ATOM      8  C   UNL     1       5.749  12.407  43.145  0.00  0.00    +0.000 A 
ATOM      9  C   UNL     1       6.753  13.601  44.986  0.00  0.00    +0.000 A 
ATOM     10  C   UNL     1       5.676  12.899  44.446  0.00  0.00    +0.000 A 
ENDBRANCH   3   5
ENDBRANCH   2   3
BRANCH   2  11
ATOM     11  O   UNL     1      11.495  12.929  41.847  0.00  0.00    +0.000 OA
BRANCH  11  12
ATOM     12  C   UNL     1      12.563  12.999  42.830  0.00  0.00    +0.000 C 
ATOM     13  C   UNL     1      13.953  12.768  42.170  0.00  0.00    +0.000 C 
ATOM     14  C   UNL     1      12.496  14.383  43.527  0.00  0.00    +0.000 C 
ATOM     15  C   UNL     1      15.110  13.215  43.110  0.00  0.00    +0.000 C 
ATOM     16  C   UNL     1      13.792  14.683  44.337  0.00  0.00    +0.000 C 
ATOM     17  N   UNL     1      14.980  14.642  43.463  0.00  0.00    +0.000 NA
ATOM     18  C   UNL     1      14.985  12.554  44.503  0.00  0.00    +0.000 C 
ATOM     19  C   UNL     1      14.111  13.536  45.322  0.00  0.00    +0.000 C 
ATOM     20  C   UNL     1      15.066  15.632  42.364  0.00  0.00    +0.000 C 
ENDBRANCH  11  12
ENDBRANCH   2  11
TORSDOF 4
ENDMDL
MODEL 15
REMARK VINA RESULT:    -5.218      1.932      3.741
REMARK INTER + INTRA:          -7.326
REMARK INTER:                  -7.013
REMARK INTRA:                  -0.313
REMARK UNBOUND:                -0.888
REMARK  Name = opt48.pdb
REMARK  5 active torsions:
REMARK  status: ('A' for Active; 'I' for Inactive)
REMARK    1  A    between atoms: C_2  and  O_3
REMARK    2  A    between atoms: C_2  and  C_4
REMARK    3  A    between atoms: O_3  and  C_5
REMARK    4  A    between atoms: C_4  and  C_6
REMARK    5  A    between atoms: N_16  and  C_20
REMARK                            x       y       z     vdW  Elec       q    Type
REMARK                         _______ _______ _______ _____ _____    ______ ____
ROOT
ATOM      1  O   UNL     1      10.543  14.070  42.434  0.00  0.00    +0.000 OA
ATOM      2  C   UNL     1      10.691  14.200  43.636  0.00  0.00    +0.000 C 
ENDROOT
BRANCH   2   3
ATOM      3  C   UNL     1      11.688  15.146  44.211  0.00  0.00    +0.000 C 
ATOM      4  C   UNL     1      11.384  16.426  44.489  0.00  0.00    +0.000 C 
BRANCH   3   5
ATOM      5  C   UNL     1      13.043  14.617  44.473  0.00  0.00    +0.000 A 
ATOM      6  C   UNL     1      13.241  13.240  44.581  0.00  0.00    +0.000 A 
ATOM      7  C   UNL     1      14.129  15.484  44.608  0.00  0.00    +0.000 A 
ATOM      8  C   UNL     1      14.516  12.731  44.821  0.00  0.00    +0.000 A 
ATOM      9  C   UNL     1      15.405  14.975  44.847  0.00  0.00    +0.000 A 
ATOM     10  C   UNL     1      15.599  13.598  44.954  0.00  0.00    +0.000 A 
ENDBRANCH   3   5
ENDBRANCH   2   3
BRANCH   2  11
ATOM     11  O   UNL     1       9.969  13.521  44.562  0.00  0.00    +0.000 OA
BRANCH  11  12
ATOM     12  C   UNL     1       8.517  13.527  44.506  0.00  0.00    +0.000 C 
ATOM     13  C   UNL     1       7.974  14.924  44.088  0.00  0.00    +0.000 C 
ATOM     14  C   UNL     1       8.061  12.427  43.512  0.00  0.00    +0.000 C 
ATOM     15  C   UNL     1       6.481  14.847  43.653  0.00  0.00    +0.000 C 
ATOM     16  C   UNL     1       6.560  12.586  43.126  0.00  0.00    +0.000 C 
ATOM     17  N   UNL     1       6.309  13.911  42.526  0.00  0.00    +0.000 NA
ATOM     18  C   UNL     1       5.618  14.165  44.739  0.00  0.00    +0.000 C 
ATOM     19  C   UNL     1       5.666  12.658  44.383  0.00  0.00    +0.000 C 
ATOM     20  C   UNL     1       6.993  14.236  41.252  0.00  0.00    +0.000 C 
ENDBRANCH  11  12
ENDBRANCH   2  11
TORSDOF 4
ENDMDL
MODEL 16
REMARK VINA RESULT:    -5.218      2.221      3.721
REMARK INTER + INTRA:          -7.325
REMARK INTER:                  -6.391
REMARK INTRA:                  -0.934
REMARK UNBOUND:                -0.888
REMARK  Name = opt48.pdb
REMARK  5 active torsions:
REMARK  status: ('A' for Active; 'I' for Inactive)
REMARK    1  A    between atoms: C_2  and  O_3
REMARK    2  A    between atoms: C_2  and  C_4
REMARK    3  A    between atoms: O_3  and  C_5
REMARK    4  A    between atoms: C_4  and  C_6
REMARK    5  A    between atoms: N_16  and  C_20
REMARK                            x       y       z     vdW  Elec       q    Type
REMARK                         _______ _______ _______ _____ _____    ______ ____
ROOT
ATOM      1  O   UNL     1      12.566  16.507  41.785  0.00  0.00    +0.000 OA
ATOM      2  C   UNL     1      11.855  16.476  42.773  0.00  0.00    +0.000 C 
ENDROOT
BRANCH   2   3
ATOM      3  C   UNL     1      12.420  16.405  44.150  0.00  0.00    +0.000 C 
ATOM      4  C   UNL     1      12.146  17.332  45.085  0.00  0.00    +0.000 C 
BRANCH   3   5
ATOM      5  C   UNL     1      13.302  15.260  44.456  0.00  0.00    +0.000 A 
ATOM      6  C   UNL     1      12.748  14.003  44.701  0.00  0.00    +0.000 A 
ATOM      7  C   UNL     1      14.688  15.424  44.496  0.00  0.00    +0.000 A 
ATOM      8  C   UNL     1      13.573  12.915  44.983  0.00  0.00    +0.000 A 
ATOM      9  C   UNL     1      15.514  14.335  44.778  0.00  0.00    +0.000 A 
ATOM     10  C   UNL     1      14.956  13.081  45.022  0.00  0.00    +0.000 A 
ENDBRANCH   3   5
ENDBRANCH   2   3
BRANCH   2  11
ATOM     11  O   UNL     1      10.500  16.515  42.728  0.00  0.00    +0.000 OA
BRANCH  11  12
ATOM     12  C   UNL     1       9.723  15.334  43.068  0.00  0.00    +0.000 C 
ATOM     13  C   UNL     1       8.243  15.703  43.376  0.00  0.00    +0.000 C 
ATOM     14  C   UNL     1       9.818  14.330  41.890  0.00  0.00    +0.000 C 
ATOM     15  C   UNL     1       7.327  14.444  43.360  0.00  0.00    +0.000 C 
ATOM     16  C   UNL     1       8.752  13.200  42.009  0.00  0.00    +0.000 C 
ATOM     17  N   UNL     1       7.389  13.765  42.051  0.00  0.00    +0.000 NA
ATOM     18  C   UNL     1       7.881  13.340  44.291  0.00  0.00    +0.000 C 
ATOM     19  C   UNL     1       8.825  12.508  43.388  0.00  0.00    +0.000 C 
ATOM     20  C   UNL     1       6.914  14.516  40.865  0.00  0.00    +0.000 C 
ENDBRANCH  11  12
ENDBRANCH   2  11
TORSDOF 4
ENDMDL
MODEL 17
REMARK VINA RESULT:    -5.194      2.165      3.437
REMARK INTER + INTRA:          -7.296
REMARK INTER:                  -6.682
REMARK INTRA:                  -0.614
REMARK UNBOUND:                -0.888
REMARK  Name = opt48.pdb
REMARK  5 active torsions:
REMARK  status: ('A' for Active; 'I' for Inactive)
REMARK    1  A    between atoms: C_2  and  O_3
REMARK    2  A    between atoms: C_2  and  C_4
REMARK    3  A    between atoms: O_3  and  C_5
REMARK    4  A    between atoms: C_4  and  C_6
REMARK    5  A    between atoms: N_16  and  C_20
REMARK                            x       y       z     vdW  Elec       q    Type
REMARK                         _______ _______ _______ _____ _____    ______ ____
ROOT
ATOM      1  O   UNL     1      11.200  14.048  41.861  0.00  0.00    +0.000 OA
ATOM      2  C   UNL     1      10.927  14.125  43.045  0.00  0.00    +0.000 C 
ENDROOT
BRANCH   2   3
ATOM      3  C   UNL     1      11.704  14.986  43.981  0.00  0.00    +0.000 C 
ATOM      4  C   UNL     1      11.217  16.143  44.462  0.00  0.00    +0.000 C 
BRANCH   3   5
ATOM      5  C   UNL     1      13.049  14.511  44.369  0.00  0.00    +0.000 A 
ATOM      6  C   UNL     1      13.274  13.148  44.566  0.00  0.00    +0.000 A 
ATOM      7  C   UNL     1      14.099  15.417  44.537  0.00  0.00    +0.000 A 
ATOM      8  C   UNL     1      14.541  12.692  44.925  0.00  0.00    +0.000 A 
ATOM      9  C   UNL     1      15.366  14.959  44.896  0.00  0.00    +0.000 A 
ATOM     10  C   UNL     1      15.587  13.597  45.091  0.00  0.00    +0.000 A 
ENDBRANCH   3   5
ENDBRANCH   2   3
BRANCH   2  11
ATOM     11  O   UNL     1       9.899  13.458  43.626  0.00  0.00    +0.000 OA
BRANCH  11  12
ATOM     12  C   UNL     1       8.672  13.216  42.884  0.00  0.00    +0.000 C 
ATOM     13  C   UNL     1       7.966  11.919  43.370  0.00  0.00    +0.000 C 
ATOM     14  C   UNL     1       7.750  14.453  43.046  0.00  0.00    +0.000 C 
ATOM     15  C   UNL     1       6.492  11.852  42.873  0.00  0.00    +0.000 C 
ATOM     16  C   UNL     1       6.293  14.149  42.584  0.00  0.00    +0.000 C 
ATOM     17  N   UNL     1       5.724  13.020  43.345  0.00  0.00    +0.000 NA
ATOM     18  C   UNL     1       6.411  12.045  41.341  0.00  0.00    +0.000 C 
ATOM     19  C   UNL     1       6.273  13.576  41.150  0.00  0.00    +0.000 C 
ATOM     20  C   UNL     1       5.556  13.186  44.809  0.00  0.00    +0.000 C 
ENDBRANCH  11  12
ENDBRANCH   2  11
TORSDOF 4
ENDMDL
MODEL 18
REMARK VINA RESULT:    -5.145      2.101      3.270
REMARK INTER + INTRA:          -7.236
REMARK INTER:                  -6.624
REMARK INTRA:                  -0.612
REMARK UNBOUND:                -0.888
REMARK  Name = opt48.pdb
REMARK  5 active torsions:
REMARK  status: ('A' for Active; 'I' for Inactive)
REMARK    1  A    between atoms: C_2  and  O_3
REMARK    2  A    between atoms: C_2  and  C_4
REMARK    3  A    between atoms: O_3  and  C_5
REMARK    4  A    between atoms: C_4  and  C_6
REMARK    5  A    between atoms: N_16  and  C_20
REMARK                            x       y       z     vdW  Elec       q    Type
REMARK                         _______ _______ _______ _____ _____    ______ ____
ROOT
ATOM      1  O   UNL     1      11.300  13.807  41.954  0.00  0.00    +0.000 OA
ATOM      2  C   UNL     1      11.002  13.915  43.129  0.00  0.00    +0.000 C 
ENDROOT
BRANCH   2   3
ATOM      3  C   UNL     1      11.784  14.768  44.067  0.00  0.00    +0.000 C 
ATOM      4  C   UNL     1      11.274  15.884  44.617  0.00  0.00    +0.000 C 
BRANCH   3   5
ATOM      5  C   UNL     1      13.162  14.333  44.379  0.00  0.00    +0.000 A 
ATOM      6  C   UNL     1      14.167  15.285  44.560  0.00  0.00    +0.000 A 
ATOM      7  C   UNL     1      13.467  12.976  44.498  0.00  0.00    +0.000 A 
ATOM      8  C   UNL     1      15.467  14.884  44.861  0.00  0.00    +0.000 A 
ATOM      9  C   UNL     1      14.769  12.575  44.800  0.00  0.00    +0.000 A 
ATOM     10  C   UNL     1      15.769  13.529  44.981  0.00  0.00    +0.000 A 
ENDBRANCH   3   5
ENDBRANCH   2   3
BRANCH   2  11
ATOM     11  O   UNL     1       9.938  13.295  43.697  0.00  0.00    +0.000 OA
BRANCH  11  12
ATOM     12  C   UNL     1       8.691  13.162  42.962  0.00  0.00    +0.000 C 
ATOM     13  C   UNL     1       7.920  11.878  43.386  0.00  0.00    +0.000 C 
ATOM     14  C   UNL     1       7.840  14.435  43.209  0.00  0.00    +0.000 C 
ATOM     15  C   UNL     1       6.439  11.920  42.909  0.00  0.00    +0.000 C 
ATOM     16  C   UNL     1       6.363  14.238  42.754  0.00  0.00    +0.000 C 
ATOM     17  N   UNL     1       5.743  13.099  43.459  0.00  0.00    +0.000 NA
ATOM     18  C   UNL     1       6.349  12.205  41.392  0.00  0.00    +0.000 C 
ATOM     19  C   UNL     1       6.292  13.750  41.290  0.00  0.00    +0.000 C 
ATOM     20  C   UNL     1       5.603  13.190  44.932  0.00  0.00    +0.000 C 
ENDBRANCH  11  12
ENDBRANCH   2  11
TORSDOF 4
ENDMDL
MODEL 19
REMARK VINA RESULT:    -5.052      2.026      3.289
REMARK INTER + INTRA:          -7.121
REMARK INTER:                  -6.532
REMARK INTRA:                  -0.589
REMARK UNBOUND:                -0.888
REMARK  Name = opt48.pdb
REMARK  5 active torsions:
REMARK  status: ('A' for Active; 'I' for Inactive)
REMARK    1  A    between atoms: C_2  and  O_3
REMARK    2  A    between atoms: C_2  and  C_4
REMARK    3  A    between atoms: O_3  and  C_5
REMARK    4  A    between atoms: C_4  and  C_6
REMARK    5  A    between atoms: N_16  and  C_20
REMARK                            x       y       z     vdW  Elec       q    Type
REMARK                         _______ _______ _______ _____ _____    ______ ____
ROOT
ATOM      1  O   UNL     1      11.427  14.318  41.706  0.00  0.00    +0.000 OA
ATOM      2  C   UNL     1      11.171  14.205  42.891  0.00  0.00    +0.000 C 
ENDROOT
BRANCH   2   3
ATOM      3  C   UNL     1      11.929  14.946  43.938  0.00  0.00    +0.000 C 
ATOM      4  C   UNL     1      11.431  16.036  44.547  0.00  0.00    +0.000 C 
BRANCH   3   5
ATOM      5  C   UNL     1      13.268  14.428  44.290  0.00  0.00    +0.000 A 
ATOM      6  C   UNL     1      14.300  15.317  44.588  0.00  0.00    +0.000 A 
ATOM      7  C   UNL     1      13.507  13.052  44.331  0.00  0.00    +0.000 A 
ATOM      8  C   UNL     1      15.564  14.837  44.928  0.00  0.00    +0.000 A 
ATOM      9  C   UNL     1      14.771  12.572  44.671  0.00  0.00    +0.000 A 
ATOM     10  C   UNL     1      15.800  13.464  44.969  0.00  0.00    +0.000 A 
ENDBRANCH   3   5
ENDBRANCH   2   3
BRANCH   2  11
ATOM     11  O   UNL     1      10.177  13.419  43.375  0.00  0.00    +0.000 OA
BRANCH  11  12
ATOM     12  C   UNL     1       8.786  13.791  43.175  0.00  0.00    +0.000 C 
ATOM     13  C   UNL     1       8.196  13.107  41.909  0.00  0.00    +0.000 C 
ATOM     14  C   UNL     1       7.988  13.405  44.447  0.00  0.00    +0.000 C 
ATOM     15  C   UNL     1       6.641  13.179  41.895  0.00  0.00    +0.000 C 
ATOM     16  C   UNL     1       6.451  13.444  44.196  0.00  0.00    +0.000 C 
ATOM     17  N   UNL     1       6.074  12.536  43.096  0.00  0.00    +0.000 NA
ATOM     18  C   UNL     1       6.149  14.633  42.080  0.00  0.00    +0.000 C 
ATOM     19  C   UNL     1       6.016  14.807  43.613  0.00  0.00    +0.000 C 
ATOM     20  C   UNL     1       6.320  11.086  43.279  0.00  0.00    +0.000 C 
ENDBRANCH  11  12
ENDBRANCH   2  11
TORSDOF 4
ENDMDL
MODEL 20
REMARK VINA RESULT:    -5.015      2.454      5.633
REMARK INTER + INTRA:          -7.075
REMARK INTER:                  -6.191
REMARK INTRA:                  -0.884
REMARK UNBOUND:                -0.888
REMARK  Name = opt48.pdb
REMARK  5 active torsions:
REMARK  status: ('A' for Active; 'I' for Inactive)
REMARK    1  A    between atoms: C_2  and  O_3
REMARK    2  A    between atoms: C_2  and  C_4
REMARK    3  A    between atoms: O_3  and  C_5
REMARK    4  A    between atoms: C_4  and  C_6
REMARK    5  A    between atoms: N_16  and  C_20
REMARK                            x       y       z     vdW  Elec       q    Type
REMARK                         _______ _______ _______ _____ _____    ______ ____
ROOT
ATOM      1  O   UNL     1      13.377  11.265  44.584  0.00  0.00    +0.000 OA
ATOM      2  C   UNL     1      13.224  12.111  43.722  0.00  0.00    +0.000 C 
ENDROOT
BRANCH   2   3
ATOM      3  C   UNL     1      11.872  12.584  43.311  0.00  0.00    +0.000 C 
ATOM      4  C   UNL     1      10.918  11.741  42.880  0.00  0.00    +0.000 C 
BRANCH   3   5
ATOM      5  C   UNL     1      11.614  14.037  43.400  0.00  0.00    +0.000 A 
ATOM      6  C   UNL     1      11.196  14.738  42.268  0.00  0.00    +0.000 A 
ATOM      7  C   UNL     1      11.781  14.714  44.610  0.00  0.00    +0.000 A 
ATOM      8  C   UNL     1      10.943  16.107  42.345  0.00  0.00    +0.000 A 
ATOM      9  C   UNL     1      11.528  16.083  44.686  0.00  0.00    +0.000 A 
ATOM     10  C   UNL     1      11.110  16.780  43.554  0.00  0.00    +0.000 A 
ENDBRANCH   3   5
ENDBRANCH   2   3
BRANCH   2  11
ATOM     11  O   UNL     1      14.248  12.713  43.067  0.00  0.00    +0.000 OA
BRANCH  11  12
ATOM     12  C   UNL     1      14.915  13.865  43.653  0.00  0.00    +0.000 C 
ATOM     13  C   UNL     1      16.301  13.474  44.240  0.00  0.00    +0.000 C 
ATOM     14  C   UNL     1      15.054  14.957  42.561  0.00  0.00    +0.000 C 
ATOM     15  C   UNL     1      17.178  14.732  44.514  0.00  0.00    +0.000 C 
ATOM     16  C   UNL     1      16.051  16.075  42.989  0.00  0.00    +0.000 C 
ATOM     17  N   UNL     1      17.384  15.510  43.278  0.00  0.00    +0.000 NA
ATOM     18  C   UNL     1      16.420  15.760  45.387  0.00  0.00    +0.000 C 
ATOM     19  C   UNL     1      15.675  16.658  44.369  0.00  0.00    +0.000 C 
ATOM     20  C   UNL     1      18.113  14.853  42.167  0.00  0.00    +0.000 C 
ENDBRANCH  11  12
ENDBRANCH   2  11
TORSDOF 4
ENDMDL
