MODEL 1
REMARK VINA RESULT:    -4.511      0.000      0.000
REMARK INTER + INTRA:          -5.508
REMARK INTER:                  -5.302
REMARK INTRA:                  -0.205
REMARK UNBOUND:                -0.205
REMARK  Name = opt23.pdb
REMARK  5 active torsions:
REMARK  status: ('A' for Active; 'I' for Inactive)
REMARK    1  A    between atoms: C_2  and  O_3
REMARK    2  A    between atoms: C_2  and  C_4
REMARK    3  A    between atoms: O_3  and  C_5
REMARK    4  A    between atoms: C_6  and  O_8
REMARK    5  A    between atoms: O_8  and  C_11
REMARK                            x       y       z     vdW  Elec       q    Type
REMARK                         _______ _______ _______ _____ _____    ______ ____
ROOT
ATOM      1  C   UNL     1      14.152  14.329  44.635  0.00  0.00    +0.000 A 
ATOM      2  C   UNL     1      12.898  13.684  44.590  0.00  0.00    +0.000 A 
ATOM      3  C   UNL     1      14.169  15.732  44.690  0.00  0.00    +0.000 A 
ATOM      4  C   UNL     1      11.718  14.427  44.613  0.00  0.00    +0.000 A 
ATOM      5  C   UNL     1      12.987  16.468  44.706  0.00  0.00    +0.000 A 
ATOM      6  C   UNL     1      11.760  15.816  44.669  0.00  0.00    +0.000 A 
ENDROOT
BRANCH   1   8
ATOM      7  O   UNL     1      16.235  13.544  45.563  0.00  0.00    +0.000 OA
ATOM      8  C   UNL     1      15.463  13.574  44.622  0.00  0.00    +0.000 C 
BRANCH   8   9
ATOM      9  O   UNL     1      15.730  12.899  43.476  0.00  0.00    +0.000 OA
ATOM     10  C   UNL     1      15.756  13.623  42.222  0.00  0.00    +0.000 C 
ENDBRANCH   8   9
ENDBRANCH   1   8
BRANCH   2  11
ATOM     11  O   UNL     1      12.774  12.310  44.540  0.00  0.00    +0.000 OA
ATOM     12  C   UNL     1      12.423  11.674  43.291  0.00  0.00    +0.000 C 
ENDBRANCH   2  11
TORSDOF 3
ENDMDL
MODEL 2
REMARK VINA RESULT:    -4.388      1.445      1.813
REMARK INTER + INTRA:          -5.363
REMARK INTER:                  -5.224
REMARK INTRA:                  -0.138
REMARK UNBOUND:                -0.205
REMARK  Name = opt23.pdb
REMARK  5 active torsions:
REMARK  status: ('A' for Active; 'I' for Inactive)
REMARK    1  A    between atoms: C_2  and  O_3
REMARK    2  A    between atoms: C_2  and  C_4
REMARK    3  A    between atoms: O_3  and  C_5
REMARK    4  A    between atoms: C_6  and  O_8
REMARK    5  A    between atoms: O_8  and  C_11
REMARK                            x       y       z     vdW  Elec       q    Type
REMARK                         _______ _______ _______ _____ _____    ______ ____
ROOT
ATOM      1  C   UNL     1      13.100  13.400  44.176  0.00  0.00    +0.000 A 
ATOM      2  C   UNL     1      11.715  13.513  43.928  0.00  0.00    +0.000 A 
ATOM      3  C   UNL     1      13.794  14.554  44.573  0.00  0.00    +0.000 A 
ATOM      4  C   UNL     1      11.065  14.737  44.087  0.00  0.00    +0.000 A 
ATOM      5  C   UNL     1      13.140  15.774  44.723  0.00  0.00    +0.000 A 
ATOM      6  C   UNL     1      11.774  15.867  44.481  0.00  0.00    +0.000 A 
ENDROOT
BRANCH   1   8
ATOM      7  O   UNL     1      13.555  11.073  44.615  0.00  0.00    +0.000 OA
ATOM      8  C   UNL     1      13.855  12.097  44.029  0.00  0.00    +0.000 C 
BRANCH   8   9
ATOM      9  O   UNL     1      14.903  12.131  43.168  0.00  0.00    +0.000 OA
ATOM     10  C   UNL     1      14.669  12.502  41.788  0.00  0.00    +0.000 C 
ENDBRANCH   8   9
ENDBRANCH   1   8
BRANCH   2  11
ATOM     11  O   UNL     1      10.943  12.438  43.539  0.00  0.00    +0.000 OA
ATOM     12  C   UNL     1      10.643  12.248  42.138  0.00  0.00    +0.000 C 
ENDBRANCH   2  11
TORSDOF 3
ENDMDL
MODEL 3
REMARK VINA RESULT:    -4.309      0.667      1.383
REMARK INTER + INTRA:          -5.271
REMARK INTER:                  -5.127
REMARK INTRA:                  -0.143
REMARK UNBOUND:                -0.205
REMARK  Name = opt23.pdb
REMARK  5 active torsions:
REMARK  status: ('A' for Active; 'I' for Inactive)
REMARK    1  A    between atoms: C_2  and  O_3
REMARK    2  A    between atoms: C_2  and  C_4
REMARK    3  A    between atoms: O_3  and  C_5
REMARK    4  A    between atoms: C_6  and  O_8
REMARK    5  A    between atoms: O_8  and  C_11
REMARK                            x       y       z     vdW  Elec       q    Type
REMARK                         _______ _______ _______ _____ _____    ______ ____
ROOT
ATOM      1  C   UNL     1      14.082  14.284  44.541  0.00  0.00    +0.000 A 
ATOM      2  C   UNL     1      12.817  13.659  44.534  0.00  0.00    +0.000 A 
ATOM      3  C   UNL     1      14.124  15.683  44.648  0.00  0.00    +0.000 A 
ATOM      4  C   UNL     1      11.652  14.417  44.641  0.00  0.00    +0.000 A 
ATOM      5  C   UNL     1      12.957  16.435  44.749  0.00  0.00    +0.000 A 
ATOM      6  C   UNL     1      11.718  15.802  44.747  0.00  0.00    +0.000 A 
ENDROOT
BRANCH   1   8
ATOM      7  O   UNL     1      15.665  12.799  43.491  0.00  0.00    +0.000 OA
ATOM      8  C   UNL     1      15.379  13.512  44.436  0.00  0.00    +0.000 C 
BRANCH   8   9
ATOM      9  O   UNL     1      16.236  13.677  45.475  0.00  0.00    +0.000 OA
ATOM     10  C   UNL     1      17.473  14.398  45.257  0.00  0.00    +0.000 C 
ENDBRANCH   8   9
ENDBRANCH   1   8
BRANCH   2  11
ATOM     11  O   UNL     1      12.669  12.290  44.438  0.00  0.00    +0.000 OA
ATOM     12  C   UNL     1      12.209  11.710  43.197  0.00  0.00    +0.000 C 
ENDBRANCH   2  11
TORSDOF 3
ENDMDL
MODEL 4
REMARK VINA RESULT:    -4.195      2.118      4.345
REMARK INTER + INTRA:          -5.137
REMARK INTER:                  -4.969
REMARK INTRA:                  -0.168
REMARK UNBOUND:                -0.205
REMARK  Name = opt23.pdb
REMARK  5 active torsions:
REMARK  status: ('A' for Active; 'I' for Inactive)
REMARK    1  A    between atoms: C_2  and  O_3
REMARK    2  A    between atoms: C_2  and  C_4
REMARK    3  A    between atoms: O_3  and  C_5
REMARK    4  A    between atoms: C_6  and  O_8
REMARK    5  A    between atoms: O_8  and  C_11
REMARK                            x       y       z     vdW  Elec       q    Type
REMARK                         _______ _______ _______ _____ _____    ______ ____
ROOT
ATOM      1  C   UNL     1      11.259  14.362  44.214  0.00  0.00    +0.000 A 
ATOM      2  C   UNL     1      12.501  13.732  44.441  0.00  0.00    +0.000 A 
ATOM      3  C   UNL     1      11.221  15.765  44.226  0.00  0.00    +0.000 A 
ATOM      4  C   UNL     1      13.651  14.491  44.656  0.00  0.00    +0.000 A 
ATOM      5  C   UNL     1      12.371  16.517  44.448  0.00  0.00    +0.000 A 
ATOM      6  C   UNL     1      13.589  15.880  44.663  0.00  0.00    +0.000 A 
ENDROOT
BRANCH   1   8
ATOM      7  O   UNL     1       9.732  13.016  42.922  0.00  0.00    +0.000 OA
ATOM      8  C   UNL     1       9.981  13.590  43.966  0.00  0.00    +0.000 C 
BRANCH   8   9
ATOM      9  O   UNL     1       9.114  13.558  45.009  0.00  0.00    +0.000 OA
ATOM     10  C   UNL     1       7.704  13.775  44.759  0.00  0.00    +0.000 C 
ENDBRANCH   8   9
ENDBRANCH   1   8
BRANCH   2  11
ATOM     11  O   UNL     1      12.644  12.360  44.444  0.00  0.00    +0.000 OA
ATOM     12  C   UNL     1      13.963  11.783  44.308  0.00  0.00    +0.000 C 
ENDBRANCH   2  11
TORSDOF 3
ENDMDL
MODEL 5
REMARK VINA RESULT:    -4.172      1.108      2.751
REMARK INTER + INTRA:          -5.109
REMARK INTER:                  -5.093
REMARK INTRA:                  -0.016
REMARK UNBOUND:                -0.205
REMARK  Name = opt23.pdb
REMARK  5 active torsions:
REMARK  status: ('A' for Active; 'I' for Inactive)
REMARK    1  A    between atoms: C_2  and  O_3
REMARK    2  A    between atoms: C_2  and  C_4
REMARK    3  A    between atoms: O_3  and  C_5
REMARK    4  A    between atoms: C_6  and  O_8
REMARK    5  A    between atoms: O_8  and  C_11
REMARK                            x       y       z     vdW  Elec       q    Type
REMARK                         _______ _______ _______ _____ _____    ______ ____
ROOT
ATOM      1  C   UNL     1      13.656  13.899  44.340  0.00  0.00    +0.000 A 
ATOM      2  C   UNL     1      14.663  14.860  44.573  0.00  0.00    +0.000 A 
ATOM      3  C   UNL     1      12.320  14.328  44.349  0.00  0.00    +0.000 A 
ATOM      4  C   UNL     1      14.328  16.196  44.793  0.00  0.00    +0.000 A 
ATOM      5  C   UNL     1      11.993  15.662  44.576  0.00  0.00    +0.000 A 
ATOM      6  C   UNL     1      12.997  16.599  44.797  0.00  0.00    +0.000 A 
ENDROOT
BRANCH   1   8
ATOM      7  O   UNL     1      13.385  11.522  44.644  0.00  0.00    +0.000 OA
ATOM      8  C   UNL     1      13.961  12.438  44.087  0.00  0.00    +0.000 C 
BRANCH   8   9
ATOM      9  O   UNL     1      14.928  12.201  43.164  0.00  0.00    +0.000 OA
ATOM     10  C   UNL     1      14.683  12.557  41.782  0.00  0.00    +0.000 C 
ENDBRANCH   8   9
ENDBRANCH   1   8
BRANCH   2  11
ATOM     11  O   UNL     1      16.005  14.540  44.579  0.00  0.00    +0.000 OA
ATOM     12  C   UNL     1      16.643  14.176  45.824  0.00  0.00    +0.000 C 
ENDBRANCH   2  11
TORSDOF 3
ENDMDL
MODEL 6
REMARK VINA RESULT:    -4.104      2.476      4.519
REMARK INTER + INTRA:          -5.030
REMARK INTER:                  -4.883
REMARK INTRA:                  -0.147
REMARK UNBOUND:                -0.205
REMARK  Name = opt23.pdb
REMARK  5 active torsions:
REMARK  status: ('A' for Active; 'I' for Inactive)
REMARK    1  A    between atoms: C_2  and  O_3
REMARK    2  A    between atoms: C_2  and  C_4
REMARK    3  A    between atoms: O_3  and  C_5
REMARK    4  A    between atoms: C_6  and  O_8
REMARK    5  A    between atoms: O_8  and  C_11
REMARK                            x       y       z     vdW  Elec       q    Type
REMARK                         _______ _______ _______ _____ _____    ______ ____
ROOT
ATOM      1  C   UNL     1      10.819  13.596  43.593  0.00  0.00    +0.000 A 
ATOM      2  C   UNL     1      12.070  13.283  44.165  0.00  0.00    +0.000 A 
ATOM      3  C   UNL     1      10.426  14.943  43.565  0.00  0.00    +0.000 A 
ATOM      4  C   UNL     1      12.888  14.291  44.674  0.00  0.00    +0.000 A 
ATOM      5  C   UNL     1      11.244  15.944  44.081  0.00  0.00    +0.000 A 
ATOM      6  C   UNL     1      12.478  15.619  44.635  0.00  0.00    +0.000 A 
ENDROOT
BRANCH   1   8
ATOM      7  O   UNL     1      10.173  11.854  42.055  0.00  0.00    +0.000 OA
ATOM      8  C   UNL     1       9.894  12.544  43.018  0.00  0.00    +0.000 C 
BRANCH   8   9
ATOM      9  O   UNL     1       8.712  12.397  43.667  0.00  0.00    +0.000 OA
ATOM     10  C   UNL     1       7.478  12.559  42.926  0.00  0.00    +0.000 C 
ENDBRANCH   8   9
ENDBRANCH   1   8
BRANCH   2  11
ATOM     11  O   UNL     1      12.549  11.991  44.235  0.00  0.00    +0.000 OA
ATOM     12  C   UNL     1      13.974  11.757  44.182  0.00  0.00    +0.000 C 
ENDBRANCH   2  11
TORSDOF 3
ENDMDL
MODEL 7
REMARK VINA RESULT:    -4.100      4.030      5.421
REMARK INTER + INTRA:          -5.025
REMARK INTER:                  -4.849
REMARK INTRA:                  -0.176
REMARK UNBOUND:                -0.205
REMARK  Name = opt23.pdb
REMARK  5 active torsions:
REMARK  status: ('A' for Active; 'I' for Inactive)
REMARK    1  A    between atoms: C_2  and  O_3
REMARK    2  A    between atoms: C_2  and  C_4
REMARK    3  A    between atoms: O_3  and  C_5
REMARK    4  A    between atoms: C_6  and  O_8
REMARK    5  A    between atoms: O_8  and  C_11
REMARK                            x       y       z     vdW  Elec       q    Type
REMARK                         _______ _______ _______ _____ _____    ______ ____
ROOT
ATOM      1  C   UNL     1       9.108  12.875  43.223  0.00  0.00    +0.000 A 
ATOM      2  C   UNL     1       7.888  12.218  43.491  0.00  0.00    +0.000 A 
ATOM      3  C   UNL     1       9.200  14.242  43.525  0.00  0.00    +0.000 A 
ATOM      4  C   UNL     1       6.817  12.915  44.049  0.00  0.00    +0.000 A 
ATOM      5  C   UNL     1       8.125  14.934  44.076  0.00  0.00    +0.000 A 
ATOM      6  C   UNL     1       6.931  14.270  44.340  0.00  0.00    +0.000 A 
ENDROOT
BRANCH   1   8
ATOM      7  O   UNL     1      10.424  11.925  41.440  0.00  0.00    +0.000 OA
ATOM      8  C   UNL     1      10.306  12.167  42.627  0.00  0.00    +0.000 C 
BRANCH   8   9
ATOM      9  O   UNL     1      11.275  11.824  43.513  0.00  0.00    +0.000 OA
ATOM     10  C   UNL     1      12.643  12.218  43.246  0.00  0.00    +0.000 C 
ENDBRANCH   8   9
ENDBRANCH   1   8
BRANCH   2  11
ATOM     11  O   UNL     1       7.699  10.876  43.235  0.00  0.00    +0.000 OA
ATOM     12  C   UNL     1       6.382  10.301  43.394  0.00  0.00    +0.000 C 
ENDBRANCH   2  11
TORSDOF 3
ENDMDL
MODEL 8
REMARK VINA RESULT:    -4.075      2.078      3.756
REMARK INTER + INTRA:          -4.996
REMARK INTER:                  -4.751
REMARK INTRA:                  -0.245
REMARK UNBOUND:                -0.205
REMARK  Name = opt23.pdb
REMARK  5 active torsions:
REMARK  status: ('A' for Active; 'I' for Inactive)
REMARK    1  A    between atoms: C_2  and  O_3
REMARK    2  A    between atoms: C_2  and  C_4
REMARK    3  A    between atoms: O_3  and  C_5
REMARK    4  A    between atoms: C_6  and  O_8
REMARK    5  A    between atoms: O_8  and  C_11
REMARK                            x       y       z     vdW  Elec       q    Type
REMARK                         _______ _______ _______ _____ _____    ______ ____
ROOT
ATOM      1  C   UNL     1      14.628  13.576  44.610  0.00  0.00    +0.000 A 
ATOM      2  C   UNL     1      14.923  14.473  43.562  0.00  0.00    +0.000 A 
ATOM      3  C   UNL     1      15.526  13.502  45.686  0.00  0.00    +0.000 A 
ATOM      4  C   UNL     1      16.069  15.267  43.612  0.00  0.00    +0.000 A 
ATOM      5  C   UNL     1      16.671  14.292  45.727  0.00  0.00    +0.000 A 
ATOM      6  C   UNL     1      16.944  15.177  44.689  0.00  0.00    +0.000 A 
ENDROOT
BRANCH   1   8
ATOM      7  O   UNL     1      13.432  11.484  44.516  0.00  0.00    +0.000 OA
ATOM      8  C   UNL     1      13.396  12.697  44.614  0.00  0.00    +0.000 C 
BRANCH   8   9
ATOM      9  O   UNL     1      12.218  13.355  44.754  0.00  0.00    +0.000 OA
ATOM     10  C   UNL     1      11.158  13.112  43.798  0.00  0.00    +0.000 C 
ENDBRANCH   8   9
ENDBRANCH   1   8
BRANCH   2  11
ATOM     11  O   UNL     1      14.102  14.624  42.464  0.00  0.00    +0.000 OA
ATOM     12  C   UNL     1      13.436  15.887  42.242  0.00  0.00    +0.000 C 
ENDBRANCH   2  11
TORSDOF 3
ENDMDL
MODEL 9
REMARK VINA RESULT:    -4.060      1.222      2.690
REMARK INTER + INTRA:          -4.977
REMARK INTER:                  -4.725
REMARK INTRA:                  -0.252
REMARK UNBOUND:                -0.205
REMARK  Name = opt23.pdb
REMARK  5 active torsions:
REMARK  status: ('A' for Active; 'I' for Inactive)
REMARK    1  A    between atoms: C_2  and  O_3
REMARK    2  A    between atoms: C_2  and  C_4
REMARK    3  A    between atoms: O_3  and  C_5
REMARK    4  A    between atoms: C_6  and  O_8
REMARK    5  A    between atoms: O_8  and  C_11
REMARK                            x       y       z     vdW  Elec       q    Type
REMARK                         _______ _______ _______ _____ _____    ______ ____
ROOT
ATOM      1  C   UNL     1      14.127  14.291  44.750  0.00  0.00    +0.000 A 
ATOM      2  C   UNL     1      13.925  15.687  44.702  0.00  0.00    +0.000 A 
ATOM      3  C   UNL     1      12.996  13.460  44.726  0.00  0.00    +0.000 A 
ATOM      4  C   UNL     1      12.636  16.212  44.621  0.00  0.00    +0.000 A 
ATOM      5  C   UNL     1      11.712  13.992  44.652  0.00  0.00    +0.000 A 
ATOM      6  C   UNL     1      11.530  15.370  44.599  0.00  0.00    +0.000 A 
ENDROOT
BRANCH   1   8
ATOM      7  O   UNL     1      16.226  13.746  45.804  0.00  0.00    +0.000 OA
ATOM      8  C   UNL     1      15.503  13.665  44.828  0.00  0.00    +0.000 C 
BRANCH   8   9
ATOM      9  O   UNL     1      15.886  12.973  43.726  0.00  0.00    +0.000 OA
ATOM     10  C   UNL     1      16.043  13.679  42.471  0.00  0.00    +0.000 C 
ENDBRANCH   8   9
ENDBRANCH   1   8
BRANCH   2  11
ATOM     11  O   UNL     1      14.970  16.587  44.714  0.00  0.00    +0.000 OA
ATOM     12  C   UNL     1      15.368  17.231  43.483  0.00  0.00    +0.000 C 
ENDBRANCH   2  11
TORSDOF 3
ENDMDL
MODEL 10
REMARK VINA RESULT:    -4.024      2.787      4.640
REMARK INTER + INTRA:          -4.936
REMARK INTER:                  -4.672
REMARK INTRA:                  -0.263
REMARK UNBOUND:                -0.205
REMARK  Name = opt23.pdb
REMARK  5 active torsions:
REMARK  status: ('A' for Active; 'I' for Inactive)
REMARK    1  A    between atoms: C_2  and  O_3
REMARK    2  A    between atoms: C_2  and  C_4
REMARK    3  A    between atoms: O_3  and  C_5
REMARK    4  A    between atoms: C_6  and  O_8
REMARK    5  A    between atoms: O_8  and  C_11
REMARK                            x       y       z     vdW  Elec       q    Type
REMARK                         _______ _______ _______ _____ _____    ______ ____
ROOT
ATOM      1  C   UNL     1      12.227  12.511  42.912  0.00  0.00    +0.000 A 
ATOM      2  C   UNL     1      12.379  13.908  43.034  0.00  0.00    +0.000 A 
ATOM      3  C   UNL     1      13.120  11.687  43.615  0.00  0.00    +0.000 A 
ATOM      4  C   UNL     1      13.382  14.443  43.841  0.00  0.00    +0.000 A 
ATOM      5  C   UNL     1      14.123  12.228  44.414  0.00  0.00    +0.000 A 
ATOM      6  C   UNL     1      14.255  13.607  44.529  0.00  0.00    +0.000 A 
ENDROOT
BRANCH   1   8
ATOM      7  O   UNL     1      11.234  11.753  40.849  0.00  0.00    +0.000 OA
ATOM      8  C   UNL     1      11.152  11.875  42.057  0.00  0.00    +0.000 C 
BRANCH   8   9
ATOM      9  O   UNL     1      10.068  11.420  42.736  0.00  0.00    +0.000 OA
ATOM     10  C   UNL     1       8.984  12.336  43.025  0.00  0.00    +0.000 C 
ENDBRANCH   8   9
ENDBRANCH   1   8
BRANCH   2  11
ATOM     11  O   UNL     1      11.550  14.802  42.388  0.00  0.00    +0.000 OA
ATOM     12  C   UNL     1      10.798  15.762  43.164  0.00  0.00    +0.000 C 
ENDBRANCH   2  11
TORSDOF 3
ENDMDL
MODEL 11
REMARK VINA RESULT:    -3.941      2.477      3.950
REMARK INTER + INTRA:          -4.838
REMARK INTER:                  -4.659
REMARK INTRA:                  -0.179
REMARK UNBOUND:                -0.205
REMARK  Name = opt23.pdb
REMARK  5 active torsions:
REMARK  status: ('A' for Active; 'I' for Inactive)
REMARK    1  A    between atoms: C_2  and  O_3
REMARK    2  A    between atoms: C_2  and  C_4
REMARK    3  A    between atoms: O_3  and  C_5
REMARK    4  A    between atoms: C_6  and  O_8
REMARK    5  A    between atoms: O_8  and  C_11
REMARK                            x       y       z     vdW  Elec       q    Type
REMARK                         _______ _______ _______ _____ _____    ______ ____
ROOT
ATOM      1  C   UNL     1      12.050  13.608  44.355  0.00  0.00    +0.000 A 
ATOM      2  C   UNL     1      12.496  12.384  43.812  0.00  0.00    +0.000 A 
ATOM      3  C   UNL     1      13.004  14.456  44.939  0.00  0.00    +0.000 A 
ATOM      4  C   UNL     1      13.848  12.044  43.849  0.00  0.00    +0.000 A 
ATOM      5  C   UNL     1      14.351  14.108  44.978  0.00  0.00    +0.000 A 
ATOM      6  C   UNL     1      14.776  12.901  44.432  0.00  0.00    +0.000 A 
ENDROOT
BRANCH   1   8
ATOM      7  O   UNL     1       9.711  13.428  44.912  0.00  0.00    +0.000 OA
ATOM      8  C   UNL     1      10.597  14.031  44.336  0.00  0.00    +0.000 C 
BRANCH   8   9
ATOM      9  O   UNL     1      10.335  15.164  43.635  0.00  0.00    +0.000 OA
ATOM     10  C   UNL     1      10.256  15.095  42.191  0.00  0.00    +0.000 C 
ENDBRANCH   8   9
ENDBRANCH   1   8
BRANCH   2  11
ATOM     11  O   UNL     1      11.639  11.485  43.212  0.00  0.00    +0.000 OA
ATOM     12  C   UNL     1      11.325  11.630  41.809  0.00  0.00    +0.000 C 
ENDBRANCH   2  11
TORSDOF 3
ENDMDL
MODEL 12
REMARK VINA RESULT:    -3.938      2.173      4.096
REMARK INTER + INTRA:          -4.834
REMARK INTER:                  -4.650
REMARK INTRA:                  -0.184
REMARK UNBOUND:                -0.205
REMARK  Name = opt23.pdb
REMARK  5 active torsions:
REMARK  status: ('A' for Active; 'I' for Inactive)
REMARK    1  A    between atoms: C_2  and  O_3
REMARK    2  A    between atoms: C_2  and  C_4
REMARK    3  A    between atoms: O_3  and  C_5
REMARK    4  A    between atoms: C_6  and  O_8
REMARK    5  A    between atoms: O_8  and  C_11
REMARK                            x       y       z     vdW  Elec       q    Type
REMARK                         _______ _______ _______ _____ _____    ______ ____
ROOT
ATOM      1  C   UNL     1      16.018  14.740  44.175  0.00  0.00    +0.000 A 
ATOM      2  C   UNL     1      17.148  15.073  44.950  0.00  0.00    +0.000 A 
ATOM      3  C   UNL     1      14.970  15.672  44.104  0.00  0.00    +0.000 A 
ATOM      4  C   UNL     1      17.217  16.300  45.612  0.00  0.00    +0.000 A 
ATOM      5  C   UNL     1      15.042  16.892  44.771  0.00  0.00    +0.000 A 
ATOM      6  C   UNL     1      16.167  17.208  45.525  0.00  0.00    +0.000 A 
ENDROOT
BRANCH   1   8
ATOM      7  O   UNL     1      16.197  13.286  42.260  0.00  0.00    +0.000 OA
ATOM      8  C   UNL     1      15.893  13.429  43.430  0.00  0.00    +0.000 C 
BRANCH   8   9
ATOM      9  O   UNL     1      15.427  12.389  44.166  0.00  0.00    +0.000 OA
ATOM     10  C   UNL     1      13.997  12.202  44.294  0.00  0.00    +0.000 C 
ENDBRANCH   8   9
ENDBRANCH   1   8
BRANCH   2  11
ATOM     11  O   UNL     1      18.232  14.229  45.080  0.00  0.00    +0.000 OA
ATOM     12  C   UNL     1      19.444  14.511  44.345  0.00  0.00    +0.000 C 
ENDBRANCH   2  11
TORSDOF 3
ENDMDL
MODEL 13
REMARK VINA RESULT:    -3.903      1.700      3.390
REMARK INTER + INTRA:          -4.792
REMARK INTER:                  -4.536
REMARK INTRA:                  -0.256
REMARK UNBOUND:                -0.205
REMARK  Name = opt23.pdb
REMARK  5 active torsions:
REMARK  status: ('A' for Active; 'I' for Inactive)
REMARK    1  A    between atoms: C_2  and  O_3
REMARK    2  A    between atoms: C_2  and  C_4
REMARK    3  A    between atoms: O_3  and  C_5
REMARK    4  A    between atoms: C_6  and  O_8
REMARK    5  A    between atoms: O_8  and  C_11
REMARK                            x       y       z     vdW  Elec       q    Type
REMARK                         _______ _______ _______ _____ _____    ______ ____
ROOT
ATOM      1  C   UNL     1      12.334  12.444  43.226  0.00  0.00    +0.000 A 
ATOM      2  C   UNL     1      11.811  13.631  43.782  0.00  0.00    +0.000 A 
ATOM      3  C   UNL     1      11.665  11.882  42.127  0.00  0.00    +0.000 A 
ATOM      4  C   UNL     1      10.670  14.224  43.241  0.00  0.00    +0.000 A 
ATOM      5  C   UNL     1      10.524  12.475  41.596  0.00  0.00    +0.000 A 
ATOM      6  C   UNL     1      10.025  13.648  42.152  0.00  0.00    +0.000 A 
ENDROOT
BRANCH   1   8
ATOM      7  O   UNL     1      13.542  10.814  44.528  0.00  0.00    +0.000 OA
ATOM      8  C   UNL     1      13.573  11.763  43.765  0.00  0.00    +0.000 C 
BRANCH   8   9
ATOM      9  O   UNL     1      14.751  12.271  43.325  0.00  0.00    +0.000 OA
ATOM     10  C   UNL     1      15.596  12.994  44.252  0.00  0.00    +0.000 C 
ENDBRANCH   8   9
ENDBRANCH   1   8
BRANCH   2  11
ATOM     11  O   UNL     1      12.397  14.264  44.859  0.00  0.00    +0.000 OA
ATOM     12  C   UNL     1      12.983  15.573  44.680  0.00  0.00    +0.000 C 
ENDBRANCH   2  11
TORSDOF 3
ENDMDL
MODEL 14
REMARK VINA RESULT:    -3.902      1.128      3.226
REMARK INTER + INTRA:          -4.792
REMARK INTER:                  -4.630
REMARK INTRA:                  -0.161
REMARK UNBOUND:                -0.205
REMARK  Name = opt23.pdb
REMARK  5 active torsions:
REMARK  status: ('A' for Active; 'I' for Inactive)
REMARK    1  A    between atoms: C_2  and  O_3
REMARK    2  A    between atoms: C_2  and  C_4
REMARK    3  A    between atoms: O_3  and  C_5
REMARK    4  A    between atoms: C_6  and  O_8
REMARK    5  A    between atoms: O_8  and  C_11
REMARK                            x       y       z     vdW  Elec       q    Type
REMARK                         _______ _______ _______ _____ _____    ______ ____
ROOT
ATOM      1  C   UNL     1      13.265  13.786  44.181  0.00  0.00    +0.000 A 
ATOM      2  C   UNL     1      14.553  14.362  44.214  0.00  0.00    +0.000 A 
ATOM      3  C   UNL     1      12.166  14.614  44.459  0.00  0.00    +0.000 A 
ATOM      4  C   UNL     1      14.715  15.717  44.505  0.00  0.00    +0.000 A 
ATOM      5  C   UNL     1      12.336  15.964  44.754  0.00  0.00    +0.000 A 
ATOM      6  C   UNL     1      13.611  16.518  44.776  0.00  0.00    +0.000 A 
ENDROOT
BRANCH   1   8
ATOM      7  O   UNL     1      13.359  11.414  44.599  0.00  0.00    +0.000 OA
ATOM      8  C   UNL     1      13.029  12.326  43.864  0.00  0.00    +0.000 C 
BRANCH   8   9
ATOM      9  O   UNL     1      12.395  12.085  42.689  0.00  0.00    +0.000 OA
ATOM     10  C   UNL     1      11.147  11.350  42.701  0.00  0.00    +0.000 C 
ENDBRANCH   8   9
ENDBRANCH   1   8
BRANCH   2  11
ATOM     11  O   UNL     1      15.696  13.636  43.951  0.00  0.00    +0.000 OA
ATOM     12  C   UNL     1      16.990  14.240  44.175  0.00  0.00    +0.000 C 
ENDBRANCH   2  11
TORSDOF 3
ENDMDL
MODEL 15
REMARK VINA RESULT:    -3.843      2.276      3.681
REMARK INTER + INTRA:          -4.723
REMARK INTER:                  -4.466
REMARK INTRA:                  -0.257
REMARK UNBOUND:                -0.205
REMARK  Name = opt23.pdb
REMARK  5 active torsions:
REMARK  status: ('A' for Active; 'I' for Inactive)
REMARK    1  A    between atoms: C_2  and  O_3
REMARK    2  A    between atoms: C_2  and  C_4
REMARK    3  A    between atoms: O_3  and  C_5
REMARK    4  A    between atoms: C_6  and  O_8
REMARK    5  A    between atoms: O_8  and  C_11
REMARK                            x       y       z     vdW  Elec       q    Type
REMARK                         _______ _______ _______ _____ _____    ______ ____
ROOT
ATOM      1  C   UNL     1      13.257  15.086  44.562  0.00  0.00    +0.000 A 
ATOM      2  C   UNL     1      12.787  13.761  44.677  0.00  0.00    +0.000 A 
ATOM      3  C   UNL     1      14.645  15.294  44.549  0.00  0.00    +0.000 A 
ATOM      4  C   UNL     1      13.685  12.697  44.763  0.00  0.00    +0.000 A 
ATOM      5  C   UNL     1      15.536  14.228  44.642  0.00  0.00    +0.000 A 
ATOM      6  C   UNL     1      15.056  12.927  44.747  0.00  0.00    +0.000 A 
ENDROOT
BRANCH   1   8
ATOM      7  O   UNL     1      12.193  17.106  45.338  0.00  0.00    +0.000 OA
ATOM      8  C   UNL     1      12.330  16.278  44.457  0.00  0.00    +0.000 C 
BRANCH   8   9
ATOM      9  O   UNL     1      11.656  16.384  43.284  0.00  0.00    +0.000 OA
ATOM     10  C   UNL     1      10.236  16.668  43.313  0.00  0.00    +0.000 C 
ENDBRANCH   8   9
ENDBRANCH   1   8
BRANCH   2  11
ATOM     11  O   UNL     1      11.443  13.451  44.693  0.00  0.00    +0.000 OA
ATOM     12  C   UNL     1      10.823  12.913  43.503  0.00  0.00    +0.000 C 
ENDBRANCH   2  11
TORSDOF 3
ENDMDL
MODEL 16
REMARK VINA RESULT:    -3.796      1.981      3.035
REMARK INTER + INTRA:          -4.667
REMARK INTER:                  -4.461
REMARK INTRA:                  -0.207
REMARK UNBOUND:                -0.205
REMARK  Name = opt23.pdb
REMARK  5 active torsions:
REMARK  status: ('A' for Active; 'I' for Inactive)
REMARK    1  A    between atoms: C_2  and  O_3
REMARK    2  A    between atoms: C_2  and  C_4
REMARK    3  A    between atoms: O_3  and  C_5
REMARK    4  A    between atoms: C_6  and  O_8
REMARK    5  A    between atoms: O_8  and  C_11
REMARK                            x       y       z     vdW  Elec       q    Type
REMARK                         _______ _______ _______ _____ _____    ______ ____
ROOT
ATOM      1  C   UNL     1      15.319  14.312  44.686  0.00  0.00    +0.000 A 
ATOM      2  C   UNL     1      14.404  15.385  44.621  0.00  0.00    +0.000 A 
ATOM      3  C   UNL     1      14.802  13.012  44.802  0.00  0.00    +0.000 A 
ATOM      4  C   UNL     1      13.030  15.146  44.659  0.00  0.00    +0.000 A 
ATOM      5  C   UNL     1      13.430  12.782  44.846  0.00  0.00    +0.000 A 
ATOM      6  C   UNL     1      12.542  13.850  44.773  0.00  0.00    +0.000 A 
ENDROOT
BRANCH   1   8
ATOM      7  O   UNL     1      17.565  14.222  45.558  0.00  0.00    +0.000 OA
ATOM      8  C   UNL     1      16.818  14.511  44.641  0.00  0.00    +0.000 C 
BRANCH   8   9
ATOM      9  O   UNL     1      17.298  15.026  43.481  0.00  0.00    +0.000 OA
ATOM     10  C   UNL     1      17.345  14.183  42.304  0.00  0.00    +0.000 C 
ENDBRANCH   8   9
ENDBRANCH   1   8
BRANCH   2  11
ATOM     11  O   UNL     1      14.810  16.698  44.501  0.00  0.00    +0.000 OA
ATOM     12  C   UNL     1      14.614  17.391  43.248  0.00  0.00    +0.000 C 
ENDBRANCH   2  11
TORSDOF 3
ENDMDL
MODEL 17
REMARK VINA RESULT:    -3.783      2.349      4.526
REMARK INTER + INTRA:          -4.652
REMARK INTER:                  -4.506
REMARK INTRA:                  -0.146
REMARK UNBOUND:                -0.205
REMARK  Name = opt23.pdb
REMARK  5 active torsions:
REMARK  status: ('A' for Active; 'I' for Inactive)
REMARK    1  A    between atoms: C_2  and  O_3
REMARK    2  A    between atoms: C_2  and  C_4
REMARK    3  A    between atoms: O_3  and  C_5
REMARK    4  A    between atoms: C_6  and  O_8
REMARK    5  A    between atoms: O_8  and  C_11
REMARK                            x       y       z     vdW  Elec       q    Type
REMARK                         _______ _______ _______ _____ _____    ______ ____
ROOT
ATOM      1  C   UNL     1      12.646  13.428  44.039  0.00  0.00    +0.000 A 
ATOM      2  C   UNL     1      13.169  14.696  44.369  0.00  0.00    +0.000 A 
ATOM      3  C   UNL     1      13.496  12.316  44.151  0.00  0.00    +0.000 A 
ATOM      4  C   UNL     1      14.488  14.827  44.804  0.00  0.00    +0.000 A 
ATOM      5  C   UNL     1      14.813  12.454  44.580  0.00  0.00    +0.000 A 
ATOM      6  C   UNL     1      15.311  13.710  44.908  0.00  0.00    +0.000 A 
ENDROOT
BRANCH   1   8
ATOM      7  O   UNL     1      10.920  12.971  42.418  0.00  0.00    +0.000 OA
ATOM      8  C   UNL     1      11.222  13.225  43.570  0.00  0.00    +0.000 C 
BRANCH   8   9
ATOM      9  O   UNL     1      10.275  13.329  44.537  0.00  0.00    +0.000 OA
ATOM     10  C   UNL     1       8.880  13.376  44.152  0.00  0.00    +0.000 C 
ENDBRANCH   8   9
ENDBRANCH   1   8
BRANCH   2  11
ATOM     11  O   UNL     1      12.415  15.849  44.297  0.00  0.00    +0.000 OA
ATOM     12  C   UNL     1      12.887  17.049  44.950  0.00  0.00    +0.000 C 
ENDBRANCH   2  11
TORSDOF 3
ENDMDL
MODEL 18
REMARK VINA RESULT:    -3.451      2.583      3.715
REMARK INTER + INTRA:          -4.261
REMARK INTER:                  -4.078
REMARK INTRA:                  -0.183
REMARK UNBOUND:                -0.205
REMARK  Name = opt23.pdb
REMARK  5 active torsions:
REMARK  status: ('A' for Active; 'I' for Inactive)
REMARK    1  A    between atoms: C_2  and  O_3
REMARK    2  A    between atoms: C_2  and  C_4
REMARK    3  A    between atoms: O_3  and  C_5
REMARK    4  A    between atoms: C_6  and  O_8
REMARK    5  A    between atoms: O_8  and  C_11
REMARK                            x       y       z     vdW  Elec       q    Type
REMARK                         _______ _______ _______ _____ _____    ______ ____
ROOT
ATOM      1  C   UNL     1      10.889  14.078  43.439  0.00  0.00    +0.000 A 
ATOM      2  C   UNL     1       9.517  13.807  43.624  0.00  0.00    +0.000 A 
ATOM      3  C   UNL     1      11.296  15.420  43.402  0.00  0.00    +0.000 A 
ATOM      4  C   UNL     1       8.604  14.850  43.776  0.00  0.00    +0.000 A 
ATOM      5  C   UNL     1      10.379  16.457  43.548  0.00  0.00    +0.000 A 
ATOM      6  C   UNL     1       9.031  16.173  43.737  0.00  0.00    +0.000 A 
ENDROOT
BRANCH   1   8
ATOM      7  O   UNL     1      12.298  12.565  42.198  0.00  0.00    +0.000 OA
ATOM      8  C   UNL     1      11.925  12.986  43.277  0.00  0.00    +0.000 C 
BRANCH   8   9
ATOM      9  O   UNL     1      12.442  12.504  44.435  0.00  0.00    +0.000 OA
ATOM     10  C   UNL     1      13.841  12.734  44.731  0.00  0.00    +0.000 C 
ENDBRANCH   8   9
ENDBRANCH   1   8
BRANCH   2  11
ATOM     11  O   UNL     1       9.017  12.522  43.681  0.00  0.00    +0.000 OA
ATOM     12  C   UNL     1       7.588  12.313  43.642  0.00  0.00    +0.000 C 
ENDBRANCH   2  11
TORSDOF 3
ENDMDL
