MODEL 1
REMARK VINA RESULT:    -4.704      0.000      0.000
REMARK INTER + INTRA:          -5.379
REMARK INTER:                  -5.254
REMARK INTRA:                  -0.124
REMARK UNBOUND:                -0.124
REMARK  Name = opt05.pdb
REMARK  2 active torsions:
REMARK  status: ('A' for Active; 'I' for Inactive)
REMARK    1  A    between atoms: C_2  and  C_4
REMARK    2  A    between atoms: C_5  and  C_6
REMARK                            x       y       z     vdW  Elec       q    Type
REMARK                         _______ _______ _______ _____ _____    ______ ____
ROOT
ATOM      1  C   UNL     1      12.881  13.314  44.616  0.00  0.00    +0.000 A 
ATOM      2  C   UNL     1      12.622  12.325  43.665  0.00  0.00    +0.000 A 
ATOM      3  C   UNL     1      11.855  14.184  44.995  0.00  0.00    +0.000 A 
ATOM      4  C   UNL     1      11.356  12.209  43.095  0.00  0.00    +0.000 A 
ATOM      5  C   UNL     1      10.587  14.064  44.431  0.00  0.00    +0.000 A 
ATOM      6  C   UNL     1      10.336  13.077  43.479  0.00  0.00    +0.000 A 
ENDROOT
BRANCH   1   8
ATOM      7  C   UNL     1      15.316  14.028  44.766  0.00  0.00    +0.000 C 
ATOM      8  C   UNL     1      14.215  13.428  45.246  0.00  0.00    +0.000 C 
BRANCH   7  10
ATOM      9  O   UNL     1      17.588  14.373  44.699  0.00  0.00    +0.000 OA
ATOM     10  C   UNL     1      16.645  14.102  45.412  0.00  0.00    +0.000 C 
ATOM     11  O   UNL     1      16.717  13.878  46.604  0.00  0.00    +0.000 OA
ENDBRANCH   7  10
ENDBRANCH   1   8
TORSDOF 2
ENDMDL
MODEL 2
REMARK VINA RESULT:    -4.507      3.677      5.537
REMARK INTER + INTRA:          -5.159
REMARK INTER:                  -5.024
REMARK INTRA:                  -0.135
REMARK UNBOUND:                -0.124
REMARK  Name = opt05.pdb
REMARK  2 active torsions:
REMARK  status: ('A' for Active; 'I' for Inactive)
REMARK    1  A    between atoms: C_2  and  C_4
REMARK    2  A    between atoms: C_5  and  C_6
REMARK                            x       y       z     vdW  Elec       q    Type
REMARK                         _______ _______ _______ _____ _____    ______ ____
ROOT
ATOM      1  C   UNL     1      14.492  13.184  43.759  0.00  0.00    +0.000 A 
ATOM      2  C   UNL     1      14.790  13.374  45.111  0.00  0.00    +0.000 A 
ATOM      3  C   UNL     1      15.454  13.497  42.796  0.00  0.00    +0.000 A 
ATOM      4  C   UNL     1      16.032  13.875  45.494  0.00  0.00    +0.000 A 
ATOM      5  C   UNL     1      16.698  13.991  43.179  0.00  0.00    +0.000 A 
ATOM      6  C   UNL     1      16.989  14.182  44.529  0.00  0.00    +0.000 A 
ENDROOT
BRANCH   1   8
ATOM      7  C   UNL     1      12.745  12.368  42.103  0.00  0.00    +0.000 C 
ATOM      8  C   UNL     1      13.185  12.628  43.344  0.00  0.00    +0.000 C 
BRANCH   7  10
ATOM      9  O   UNL     1      11.311  11.379  40.601  0.00  0.00    +0.000 OA
ATOM     10  C   UNL     1      11.419  11.834  41.720  0.00  0.00    +0.000 C 
ATOM     11  O   UNL     1      10.520  11.893  42.536  0.00  0.00    +0.000 OA
ENDBRANCH   7  10
ENDBRANCH   1   8
TORSDOF 2
ENDMDL
MODEL 3
REMARK VINA RESULT:    -4.470      2.858      3.789
REMARK INTER + INTRA:          -5.117
REMARK INTER:                  -4.990
REMARK INTRA:                  -0.127
REMARK UNBOUND:                -0.124
REMARK  Name = opt05.pdb
REMARK  2 active torsions:
REMARK  status: ('A' for Active; 'I' for Inactive)
REMARK    1  A    between atoms: C_2  and  C_4
REMARK    2  A    between atoms: C_5  and  C_6
REMARK                            x       y       z     vdW  Elec       q    Type
REMARK                         _______ _______ _______ _____ _____    ______ ____
ROOT
ATOM      1  C   UNL     1      12.026  15.165  44.482  0.00  0.00    +0.000 A 
ATOM      2  C   UNL     1      12.857  16.188  44.944  0.00  0.00    +0.000 A 
ATOM      3  C   UNL     1      10.820  15.493  43.857  0.00  0.00    +0.000 A 
ATOM      4  C   UNL     1      12.486  17.522  44.788  0.00  0.00    +0.000 A 
ATOM      5  C   UNL     1      10.452  16.827  43.696  0.00  0.00    +0.000 A 
ATOM      6  C   UNL     1      11.283  17.843  44.162  0.00  0.00    +0.000 A 
ENDROOT
BRANCH   1   8
ATOM      7  C   UNL     1      13.462  13.112  44.050  0.00  0.00    +0.000 C 
ATOM      8  C   UNL     1      12.424  13.747  44.619  0.00  0.00    +0.000 C 
BRANCH   7  10
ATOM      9  O   UNL     1      14.999  11.408  44.184  0.00  0.00    +0.000 OA
ATOM     10  C   UNL     1      13.818  11.683  44.189  0.00  0.00    +0.000 C 
ATOM     11  O   UNL     1      12.916  10.874  44.288  0.00  0.00    +0.000 OA
ENDBRANCH   7  10
ENDBRANCH   1   8
TORSDOF 2
ENDMDL
MODEL 4
REMARK VINA RESULT:    -4.470      3.693      5.202
REMARK INTER + INTRA:          -5.117
REMARK INTER:                  -4.989
REMARK INTRA:                  -0.127
REMARK UNBOUND:                -0.124
REMARK  Name = opt05.pdb
REMARK  2 active torsions:
REMARK  status: ('A' for Active; 'I' for Inactive)
REMARK    1  A    between atoms: C_2  and  C_4
REMARK    2  A    between atoms: C_5  and  C_6
REMARK                            x       y       z     vdW  Elec       q    Type
REMARK                         _______ _______ _______ _____ _____    ______ ____
ROOT
ATOM      1  C   UNL     1      13.832  13.581  44.132  0.00  0.00    +0.000 A 
ATOM      2  C   UNL     1      14.917  12.935  44.729  0.00  0.00    +0.000 A 
ATOM      3  C   UNL     1      13.827  14.975  44.050  0.00  0.00    +0.000 A 
ATOM      4  C   UNL     1      15.982  13.673  45.242  0.00  0.00    +0.000 A 
ATOM      5  C   UNL     1      14.895  15.713  44.556  0.00  0.00    +0.000 A 
ATOM      6  C   UNL     1      15.973  15.063  45.154  0.00  0.00    +0.000 A 
ENDROOT
BRANCH   1   8
ATOM      7  C   UNL     1      12.481  12.489  42.277  0.00  0.00    +0.000 C 
ATOM      8  C   UNL     1      12.709  12.804  43.562  0.00  0.00    +0.000 C 
BRANCH   7  10
ATOM      9  O   UNL     1      11.342  11.489  40.547  0.00  0.00    +0.000 OA
ATOM     10  C   UNL     1      11.331  11.729  41.736  0.00  0.00    +0.000 C 
ATOM     11  O   UNL     1      10.447  11.403  42.504  0.00  0.00    +0.000 OA
ENDBRANCH   7  10
ENDBRANCH   1   8
TORSDOF 2
ENDMDL
MODEL 5
REMARK VINA RESULT:    -4.411      3.174      4.418
REMARK INTER + INTRA:          -5.051
REMARK INTER:                  -4.916
REMARK INTRA:                  -0.135
REMARK UNBOUND:                -0.124
REMARK  Name = opt05.pdb
REMARK  2 active torsions:
REMARK  status: ('A' for Active; 'I' for Inactive)
REMARK    1  A    between atoms: C_2  and  C_4
REMARK    2  A    between atoms: C_5  and  C_6
REMARK                            x       y       z     vdW  Elec       q    Type
REMARK                         _______ _______ _______ _____ _____    ______ ____
ROOT
ATOM      1  C   UNL     1      13.214  15.507  44.679  0.00  0.00    +0.000 A 
ATOM      2  C   UNL     1      12.132  16.364  44.895  0.00  0.00    +0.000 A 
ATOM      3  C   UNL     1      14.513  16.013  44.757  0.00  0.00    +0.000 A 
ATOM      4  C   UNL     1      12.346  17.710  45.181  0.00  0.00    +0.000 A 
ATOM      5  C   UNL     1      14.728  17.358  45.050  0.00  0.00    +0.000 A 
ATOM      6  C   UNL     1      13.644  18.208  45.261  0.00  0.00    +0.000 A 
ENDROOT
BRANCH   1   8
ATOM      7  C   UNL     1      13.865  13.054  44.531  0.00  0.00    +0.000 C 
ATOM      8  C   UNL     1      12.997  14.070  44.400  0.00  0.00    +0.000 C 
BRANCH   7  10
ATOM      9  O   UNL     1      12.529  11.340  43.779  0.00  0.00    +0.000 OA
ATOM     10  C   UNL     1      13.622  11.628  44.218  0.00  0.00    +0.000 C 
ATOM     11  O   UNL     1      14.518  10.834  44.428  0.00  0.00    +0.000 OA
ENDBRANCH   7  10
ENDBRANCH   1   8
TORSDOF 2
ENDMDL
MODEL 6
REMARK VINA RESULT:    -4.375      3.322      5.273
REMARK INTER + INTRA:          -5.010
REMARK INTER:                  -4.877
REMARK INTRA:                  -0.133
REMARK UNBOUND:                -0.124
REMARK  Name = opt05.pdb
REMARK  2 active torsions:
REMARK  status: ('A' for Active; 'I' for Inactive)
REMARK    1  A    between atoms: C_2  and  C_4
REMARK    2  A    between atoms: C_5  and  C_6
REMARK                            x       y       z     vdW  Elec       q    Type
REMARK                         _______ _______ _______ _____ _____    ______ ____
ROOT
ATOM      1  C   UNL     1      14.188  14.225  44.927  0.00  0.00    +0.000 A 
ATOM      2  C   UNL     1      15.265  13.510  45.457  0.00  0.00    +0.000 A 
ATOM      3  C   UNL     1      14.362  15.568  44.585  0.00  0.00    +0.000 A 
ATOM      4  C   UNL     1      16.497  14.131  45.649  0.00  0.00    +0.000 A 
ATOM      5  C   UNL     1      15.595  16.187  44.771  0.00  0.00    +0.000 A 
ATOM      6  C   UNL     1      16.664  15.470  45.304  0.00  0.00    +0.000 A 
ENDROOT
BRANCH   1   8
ATOM      7  C   UNL     1      11.743  14.111  44.242  0.00  0.00    +0.000 C 
ATOM      8  C   UNL     1      12.884  13.567  44.695  0.00  0.00    +0.000 C 
BRANCH   7  10
ATOM      9  O   UNL     1      10.293  12.828  43.002  0.00  0.00    +0.000 OA
ATOM     10  C   UNL     1      10.445  13.427  44.046  0.00  0.00    +0.000 C 
ATOM     11  O   UNL     1       9.612  13.514  44.926  0.00  0.00    +0.000 OA
ENDBRANCH   7  10
ENDBRANCH   1   8
TORSDOF 2
ENDMDL
MODEL 7
REMARK VINA RESULT:    -4.337      3.673      5.438
REMARK INTER + INTRA:          -4.968
REMARK INTER:                  -4.843
REMARK INTRA:                  -0.125
REMARK UNBOUND:                -0.124
REMARK  Name = opt05.pdb
REMARK  2 active torsions:
REMARK  status: ('A' for Active; 'I' for Inactive)
REMARK    1  A    between atoms: C_2  and  C_4
REMARK    2  A    between atoms: C_5  and  C_6
REMARK                            x       y       z     vdW  Elec       q    Type
REMARK                         _______ _______ _______ _____ _____    ______ ____
ROOT
ATOM      1  C   UNL     1      13.986  13.663  44.024  0.00  0.00    +0.000 A 
ATOM      2  C   UNL     1      14.041  15.059  44.047  0.00  0.00    +0.000 A 
ATOM      3  C   UNL     1      15.040  12.929  44.574  0.00  0.00    +0.000 A 
ATOM      4  C   UNL     1      15.136  15.712  44.607  0.00  0.00    +0.000 A 
ATOM      5  C   UNL     1      16.132  13.582  45.140  0.00  0.00    +0.000 A 
ATOM      6  C   UNL     1      16.182  14.974  45.157  0.00  0.00    +0.000 A 
ENDROOT
BRANCH   1   8
ATOM      7  C   UNL     1      12.633  12.525  42.198  0.00  0.00    +0.000 C 
ATOM      8  C   UNL     1      12.815  12.961  43.455  0.00  0.00    +0.000 C 
BRANCH   7  10
ATOM      9  O   UNL     1      10.535  11.614  42.433  0.00  0.00    +0.000 OA
ATOM     10  C   UNL     1      11.436  11.847  41.654  0.00  0.00    +0.000 C 
ATOM     11  O   UNL     1      11.428  11.555  40.474  0.00  0.00    +0.000 OA
ENDBRANCH   7  10
ENDBRANCH   1   8
TORSDOF 2
ENDMDL
MODEL 8
REMARK VINA RESULT:    -4.281      4.425      5.919
REMARK INTER + INTRA:          -4.906
REMARK INTER:                  -4.780
REMARK INTRA:                  -0.126
REMARK UNBOUND:                -0.124
REMARK  Name = opt05.pdb
REMARK  2 active torsions:
REMARK  status: ('A' for Active; 'I' for Inactive)
REMARK    1  A    between atoms: C_2  and  C_4
REMARK    2  A    between atoms: C_5  and  C_6
REMARK                            x       y       z     vdW  Elec       q    Type
REMARK                         _______ _______ _______ _____ _____    ______ ____
ROOT
ATOM      1  C   UNL     1      11.435  14.363  44.542  0.00  0.00    +0.000 A 
ATOM      2  C   UNL     1      12.596  13.611  44.742  0.00  0.00    +0.000 A 
ATOM      3  C   UNL     1      11.539  15.741  44.342  0.00  0.00    +0.000 A 
ATOM      4  C   UNL     1      13.844  14.230  44.748  0.00  0.00    +0.000 A 
ATOM      5  C   UNL     1      12.788  16.359  44.341  0.00  0.00    +0.000 A 
ATOM      6  C   UNL     1      13.941  15.605  44.545  0.00  0.00    +0.000 A 
ENDROOT
BRANCH   1   8
ATOM      7  C   UNL     1       9.553  12.997  43.515  0.00  0.00    +0.000 C 
ATOM      8  C   UNL     1      10.108  13.710  44.508  0.00  0.00    +0.000 C 
BRANCH   7  10
ATOM      9  O   UNL     1       7.285  13.064  43.888  0.00  0.00    +0.000 OA
ATOM     10  C   UNL     1       8.209  12.378  43.505  0.00  0.00    +0.000 C 
ATOM     11  O   UNL     1       8.111  11.226  43.128  0.00  0.00    +0.000 OA
ENDBRANCH   7  10
ENDBRANCH   1   8
TORSDOF 2
ENDMDL
MODEL 9
REMARK VINA RESULT:    -4.244      4.526      6.120
REMARK INTER + INTRA:          -4.864
REMARK INTER:                  -4.739
REMARK INTRA:                  -0.125
REMARK UNBOUND:                -0.124
REMARK  Name = opt05.pdb
REMARK  2 active torsions:
REMARK  status: ('A' for Active; 'I' for Inactive)
REMARK    1  A    between atoms: C_2  and  C_4
REMARK    2  A    between atoms: C_5  and  C_6
REMARK                            x       y       z     vdW  Elec       q    Type
REMARK                         _______ _______ _______ _____ _____    ______ ____
ROOT
ATOM      1  C   UNL     1      11.327  14.302  44.511  0.00  0.00    +0.000 A 
ATOM      2  C   UNL     1      11.448  15.694  44.512  0.00  0.00    +0.000 A 
ATOM      3  C   UNL     1      12.480  13.515  44.549  0.00  0.00    +0.000 A 
ATOM      4  C   UNL     1      12.706  16.291  44.545  0.00  0.00    +0.000 A 
ATOM      5  C   UNL     1      13.738  14.112  44.589  0.00  0.00    +0.000 A 
ATOM      6  C   UNL     1      13.853  15.501  44.587  0.00  0.00    +0.000 A 
ENDROOT
BRANCH   1   8
ATOM      7  C   UNL     1       9.414  12.955  43.517  0.00  0.00    +0.000 C 
ATOM      8  C   UNL     1       9.994  13.659  44.501  0.00  0.00    +0.000 C 
BRANCH   7  10
ATOM      9  O   UNL     1       7.195  12.951  44.120  0.00  0.00    +0.000 OA
ATOM     10  C   UNL     1       8.066  12.345  43.531  0.00  0.00    +0.000 C 
ATOM     11  O   UNL     1       7.912  11.279  42.970  0.00  0.00    +0.000 OA
ENDBRANCH   7  10
ENDBRANCH   1   8
TORSDOF 2
ENDMDL
MODEL 10
REMARK VINA RESULT:    -4.225      2.997      5.622
REMARK INTER + INTRA:          -4.843
REMARK INTER:                  -4.716
REMARK INTRA:                  -0.128
REMARK UNBOUND:                -0.124
REMARK  Name = opt05.pdb
REMARK  2 active torsions:
REMARK  status: ('A' for Active; 'I' for Inactive)
REMARK    1  A    between atoms: C_2  and  C_4
REMARK    2  A    between atoms: C_5  and  C_6
REMARK                            x       y       z     vdW  Elec       q    Type
REMARK                         _______ _______ _______ _____ _____    ______ ____
ROOT
ATOM      1  C   UNL     1      16.862  14.576  45.173  0.00  0.00    +0.000 A 
ATOM      2  C   UNL     1      18.186  14.523  44.728  0.00  0.00    +0.000 A 
ATOM      3  C   UNL     1      16.347  15.786  45.643  0.00  0.00    +0.000 A 
ATOM      4  C   UNL     1      18.985  15.663  44.757  0.00  0.00    +0.000 A 
ATOM      5  C   UNL     1      17.145  16.929  45.666  0.00  0.00    +0.000 A 
ATOM      6  C   UNL     1      18.465  16.868  45.224  0.00  0.00    +0.000 A 
ENDROOT
BRANCH   1   8
ATOM      7  C   UNL     1      14.882  13.183  44.401  0.00  0.00    +0.000 C 
ATOM      8  C   UNL     1      15.998  13.377  45.121  0.00  0.00    +0.000 C 
BRANCH   7  10
ATOM      9  O   UNL     1      14.587  10.904  44.312  0.00  0.00    +0.000 OA
ATOM     10  C   UNL     1      14.025  11.976  44.391  0.00  0.00    +0.000 C 
ATOM     11  O   UNL     1      12.821  12.127  44.451  0.00  0.00    +0.000 OA
ENDBRANCH   7  10
ENDBRANCH   1   8
TORSDOF 2
ENDMDL
MODEL 11
REMARK VINA RESULT:    -4.178      3.856      5.221
REMARK INTER + INTRA:          -4.791
REMARK INTER:                  -4.667
REMARK INTRA:                  -0.124
REMARK UNBOUND:                -0.124
REMARK  Name = opt05.pdb
REMARK  2 active torsions:
REMARK  status: ('A' for Active; 'I' for Inactive)
REMARK    1  A    between atoms: C_2  and  C_4
REMARK    2  A    between atoms: C_5  and  C_6
REMARK                            x       y       z     vdW  Elec       q    Type
REMARK                         _______ _______ _______ _____ _____    ______ ____
ROOT
ATOM      1  C   UNL     1      12.634  14.797  44.006  0.00  0.00    +0.000 A 
ATOM      2  C   UNL     1      11.779  15.810  44.448  0.00  0.00    +0.000 A 
ATOM      3  C   UNL     1      14.016  14.993  44.068  0.00  0.00    +0.000 A 
ATOM      4  C   UNL     1      12.299  17.004  44.942  0.00  0.00    +0.000 A 
ATOM      5  C   UNL     1      14.535  16.184  44.568  0.00  0.00    +0.000 A 
ATOM      6  C   UNL     1      13.678  17.192  45.005  0.00  0.00    +0.000 A 
ENDROOT
BRANCH   1   8
ATOM      7  C   UNL     1      11.729  13.196  42.252  0.00  0.00    +0.000 C 
ATOM      8  C   UNL     1      12.092  13.515  43.504  0.00  0.00    +0.000 C 
BRANCH   7  10
ATOM      9  O   UNL     1      11.378  11.599  40.634  0.00  0.00    +0.000 OA
ATOM     10  C   UNL     1      11.165  11.908  41.788  0.00  0.00    +0.000 C 
ATOM     11  O   UNL     1      10.519  11.247  42.577  0.00  0.00    +0.000 OA
ENDBRANCH   7  10
ENDBRANCH   1   8
TORSDOF 2
ENDMDL
MODEL 12
REMARK VINA RESULT:    -4.164      3.935      5.638
REMARK INTER + INTRA:          -4.775
REMARK INTER:                  -4.649
REMARK INTRA:                  -0.126
REMARK UNBOUND:                -0.124
REMARK  Name = opt05.pdb
REMARK  2 active torsions:
REMARK  status: ('A' for Active; 'I' for Inactive)
REMARK    1  A    between atoms: C_2  and  C_4
REMARK    2  A    between atoms: C_5  and  C_6
REMARK                            x       y       z     vdW  Elec       q    Type
REMARK                         _______ _______ _______ _____ _____    ______ ____
ROOT
ATOM      1  C   UNL     1      12.682  13.819  44.504  0.00  0.00    +0.000 A 
ATOM      2  C   UNL     1      13.180  15.123  44.457  0.00  0.00    +0.000 A 
ATOM      3  C   UNL     1      13.571  12.752  44.651  0.00  0.00    +0.000 A 
ATOM      4  C   UNL     1      14.550  15.358  44.551  0.00  0.00    +0.000 A 
ATOM      5  C   UNL     1      14.941  12.987  44.751  0.00  0.00    +0.000 A 
ATOM      6  C   UNL     1      15.432  14.290  44.701  0.00  0.00    +0.000 A 
ENDROOT
BRANCH   1   8
ATOM      7  C   UNL     1      10.541  12.908  43.480  0.00  0.00    +0.000 C 
ATOM      8  C   UNL     1      11.227  13.562  44.431  0.00  0.00    +0.000 C 
BRANCH   7  10
ATOM      9  O   UNL     1       8.666  11.941  42.565  0.00  0.00    +0.000 OA
ATOM     10  C   UNL     1       9.078  12.690  43.426  0.00  0.00    +0.000 C 
ATOM     11  O   UNL     1       8.381  13.277  44.229  0.00  0.00    +0.000 OA
ENDBRANCH   7  10
ENDBRANCH   1   8
TORSDOF 2
ENDMDL
MODEL 13
REMARK VINA RESULT:    -4.163      3.982      5.518
REMARK INTER + INTRA:          -4.774
REMARK INTER:                  -4.647
REMARK INTRA:                  -0.128
REMARK UNBOUND:                -0.124
REMARK  Name = opt05.pdb
REMARK  2 active torsions:
REMARK  status: ('A' for Active; 'I' for Inactive)
REMARK    1  A    between atoms: C_2  and  C_4
REMARK    2  A    between atoms: C_5  and  C_6
REMARK                            x       y       z     vdW  Elec       q    Type
REMARK                         _______ _______ _______ _____ _____    ______ ____
ROOT
ATOM      1  C   UNL     1      12.581  13.816  44.564  0.00  0.00    +0.000 A 
ATOM      2  C   UNL     1      13.492  12.765  44.690  0.00  0.00    +0.000 A 
ATOM      3  C   UNL     1      13.053  15.130  44.527  0.00  0.00    +0.000 A 
ATOM      4  C   UNL     1      14.858  13.024  44.782  0.00  0.00    +0.000 A 
ATOM      5  C   UNL     1      14.419  15.389  44.612  0.00  0.00    +0.000 A 
ATOM      6  C   UNL     1      15.323  14.336  44.741  0.00  0.00    +0.000 A 
ENDROOT
BRANCH   1   8
ATOM      7  C   UNL     1      10.484  12.895  43.460  0.00  0.00    +0.000 C 
ATOM      8  C   UNL     1      11.131  13.549  44.438  0.00  0.00    +0.000 C 
BRANCH   7  10
ATOM      9  O   UNL     1       8.661  11.783  42.607  0.00  0.00    +0.000 OA
ATOM     10  C   UNL     1       9.026  12.667  43.353  0.00  0.00    +0.000 C 
ATOM     11  O   UNL     1       8.285  13.377  44.003  0.00  0.00    +0.000 OA
ENDBRANCH   7  10
ENDBRANCH   1   8
TORSDOF 2
ENDMDL
MODEL 14
REMARK VINA RESULT:    -4.129      2.799      3.724
REMARK INTER + INTRA:          -4.736
REMARK INTER:                  -4.609
REMARK INTRA:                  -0.127
REMARK UNBOUND:                -0.124
REMARK  Name = opt05.pdb
REMARK  2 active torsions:
REMARK  status: ('A' for Active; 'I' for Inactive)
REMARK    1  A    between atoms: C_2  and  C_4
REMARK    2  A    between atoms: C_5  and  C_6
REMARK                            x       y       z     vdW  Elec       q    Type
REMARK                         _______ _______ _______ _____ _____    ______ ____
ROOT
ATOM      1  C   UNL     1      11.771  15.260  44.209  0.00  0.00    +0.000 A 
ATOM      2  C   UNL     1      10.486  15.440  43.690  0.00  0.00    +0.000 A 
ATOM      3  C   UNL     1      12.517  16.377  44.591  0.00  0.00    +0.000 A 
ATOM      4  C   UNL     1       9.955  16.720  43.551  0.00  0.00    +0.000 A 
ATOM      5  C   UNL     1      11.984  17.657  44.458  0.00  0.00    +0.000 A 
ATOM      6  C   UNL     1      10.703  17.831  43.937  0.00  0.00    +0.000 A 
ENDROOT
BRANCH   1   8
ATOM      7  C   UNL     1      13.447  13.384  43.846  0.00  0.00    +0.000 C 
ATOM      8  C   UNL     1      12.332  13.902  44.385  0.00  0.00    +0.000 C 
BRANCH   7  10
ATOM      9  O   UNL     1      13.197  11.183  44.461  0.00  0.00    +0.000 OA
ATOM     10  C   UNL     1      13.968  12.010  44.023  0.00  0.00    +0.000 C 
ATOM     11  O   UNL     1      15.129  11.795  43.735  0.00  0.00    +0.000 OA
ENDBRANCH   7  10
ENDBRANCH   1   8
TORSDOF 2
ENDMDL
MODEL 15
REMARK VINA RESULT:    -4.097      2.019      2.811
REMARK INTER + INTRA:          -4.701
REMARK INTER:                  -4.568
REMARK INTRA:                  -0.133
REMARK UNBOUND:                -0.124
REMARK  Name = opt05.pdb
REMARK  2 active torsions:
REMARK  status: ('A' for Active; 'I' for Inactive)
REMARK    1  A    between atoms: C_2  and  C_4
REMARK    2  A    between atoms: C_5  and  C_6
REMARK                            x       y       z     vdW  Elec       q    Type
REMARK                         _______ _______ _______ _____ _____    ______ ____
ROOT
ATOM      1  C   UNL     1      15.166  14.676  44.813  0.00  0.00    +0.000 A 
ATOM      2  C   UNL     1      14.938  13.307  44.974  0.00  0.00    +0.000 A 
ATOM      3  C   UNL     1      14.076  15.537  44.663  0.00  0.00    +0.000 A 
ATOM      4  C   UNL     1      13.639  12.805  44.980  0.00  0.00    +0.000 A 
ATOM      5  C   UNL     1      12.777  15.036  44.675  0.00  0.00    +0.000 A 
ATOM      6  C   UNL     1      12.556  13.669  44.832  0.00  0.00    +0.000 A 
ENDROOT
BRANCH   1   8
ATOM      7  C   UNL     1      17.702  14.563  44.688  0.00  0.00    +0.000 C 
ATOM      8  C   UNL     1      16.541  15.221  44.833  0.00  0.00    +0.000 C 
BRANCH   7  10
ATOM      9  O   UNL     1      19.153  16.347  44.710  0.00  0.00    +0.000 OA
ATOM     10  C   UNL     1      19.065  15.137  44.738  0.00  0.00    +0.000 C 
ATOM     11  O   UNL     1      20.008  14.373  44.791  0.00  0.00    +0.000 OA
ENDBRANCH   7  10
ENDBRANCH   1   8
TORSDOF 2
ENDMDL
MODEL 16
REMARK VINA RESULT:    -4.054      1.504      2.642
REMARK INTER + INTRA:          -4.652
REMARK INTER:                  -4.527
REMARK INTRA:                  -0.124
REMARK UNBOUND:                -0.124
REMARK  Name = opt05.pdb
REMARK  2 active torsions:
REMARK  status: ('A' for Active; 'I' for Inactive)
REMARK    1  A    between atoms: C_2  and  C_4
REMARK    2  A    between atoms: C_5  and  C_6
REMARK                            x       y       z     vdW  Elec       q    Type
REMARK                         _______ _______ _______ _____ _____    ______ ____
ROOT
ATOM      1  C   UNL     1      11.104  13.193  43.709  0.00  0.00    +0.000 A 
ATOM      2  C   UNL     1      10.319  13.873  44.643  0.00  0.00    +0.000 A 
ATOM      3  C   UNL     1      10.481  12.458  42.698  0.00  0.00    +0.000 A 
ATOM      4  C   UNL     1       8.929  13.815  44.571  0.00  0.00    +0.000 A 
ATOM      5  C   UNL     1       9.091  12.404  42.622  0.00  0.00    +0.000 A 
ATOM      6  C   UNL     1       8.313  13.082  43.558  0.00  0.00    +0.000 A 
ENDROOT
BRANCH   1   8
ATOM      7  C   UNL     1      13.397  12.945  44.777  0.00  0.00    +0.000 C 
ATOM      8  C   UNL     1      12.580  13.271  43.762  0.00  0.00    +0.000 C 
BRANCH   7  10
ATOM      9  O   UNL     1      15.350  13.797  45.642  0.00  0.00    +0.000 OA
ATOM     10  C   UNL     1      14.872  13.059  44.806  0.00  0.00    +0.000 C 
ATOM     11  O   UNL     1      15.513  12.424  43.992  0.00  0.00    +0.000 OA
ENDBRANCH   7  10
ENDBRANCH   1   8
TORSDOF 2
ENDMDL
MODEL 17
REMARK VINA RESULT:    -3.994      1.591      2.660
REMARK INTER + INTRA:          -4.585
REMARK INTER:                  -4.458
REMARK INTRA:                  -0.127
REMARK UNBOUND:                -0.124
REMARK  Name = opt05.pdb
REMARK  2 active torsions:
REMARK  status: ('A' for Active; 'I' for Inactive)
REMARK    1  A    between atoms: C_2  and  C_4
REMARK    2  A    between atoms: C_5  and  C_6
REMARK                            x       y       z     vdW  Elec       q    Type
REMARK                         _______ _______ _______ _____ _____    ______ ____
ROOT
ATOM      1  C   UNL     1      14.533  14.657  44.751  0.00  0.00    +0.000 A 
ATOM      2  C   UNL     1      13.831  15.860  44.636  0.00  0.00    +0.000 A 
ATOM      3  C   UNL     1      13.825  13.455  44.811  0.00  0.00    +0.000 A 
ATOM      4  C   UNL     1      12.439  15.860  44.587  0.00  0.00    +0.000 A 
ATOM      5  C   UNL     1      12.433  13.455  44.755  0.00  0.00    +0.000 A 
ATOM      6  C   UNL     1      11.738  14.658  44.645  0.00  0.00    +0.000 A 
ENDROOT
BRANCH   1   8
ATOM      7  C   UNL     1      16.864  14.493  43.751  0.00  0.00    +0.000 C 
ATOM      8  C   UNL     1      16.012  14.645  44.777  0.00  0.00    +0.000 C 
BRANCH   7  10
ATOM      9  O   UNL     1      18.940  14.514  42.762  0.00  0.00    +0.000 OA
ATOM     10  C   UNL     1      18.342  14.461  43.816  0.00  0.00    +0.000 C 
ATOM     11  O   UNL     1      18.867  14.371  44.909  0.00  0.00    +0.000 OA
ENDBRANCH   7  10
ENDBRANCH   1   8
TORSDOF 2
ENDMDL
MODEL 18
REMARK VINA RESULT:    -3.987      2.952      5.241
REMARK INTER + INTRA:          -4.577
REMARK INTER:                  -4.442
REMARK INTRA:                  -0.135
REMARK UNBOUND:                -0.124
REMARK  Name = opt05.pdb
REMARK  2 active torsions:
REMARK  status: ('A' for Active; 'I' for Inactive)
REMARK    1  A    between atoms: C_2  and  C_4
REMARK    2  A    between atoms: C_5  and  C_6
REMARK                            x       y       z     vdW  Elec       q    Type
REMARK                         _______ _______ _______ _____ _____    ______ ____
ROOT
ATOM      1  C   UNL     1      15.091  15.123  44.830  0.00  0.00    +0.000 A 
ATOM      2  C   UNL     1      14.770  16.480  44.742  0.00  0.00    +0.000 A 
ATOM      3  C   UNL     1      16.378  14.749  45.222  0.00  0.00    +0.000 A 
ATOM      4  C   UNL     1      15.724  17.451  45.038  0.00  0.00    +0.000 A 
ATOM      5  C   UNL     1      17.331  15.720  45.524  0.00  0.00    +0.000 A 
ATOM      6  C   UNL     1      17.006  17.071  45.432  0.00  0.00    +0.000 A 
ENDROOT
BRANCH   1   8
ATOM      7  C   UNL     1      14.240  12.755  44.471  0.00  0.00    +0.000 C 
ATOM      8  C   UNL     1      14.076  14.086  44.542  0.00  0.00    +0.000 C 
BRANCH   7  10
ATOM      9  O   UNL     1      13.521  10.580  44.276  0.00  0.00    +0.000 OA
ATOM     10  C   UNL     1      13.206  11.745  44.156  0.00  0.00    +0.000 C 
ATOM     11  O   UNL     1      12.116  12.136  43.787  0.00  0.00    +0.000 OA
ENDBRANCH   7  10
ENDBRANCH   1   8
TORSDOF 2
ENDMDL
MODEL 19
REMARK VINA RESULT:    -3.660      4.421      6.089
REMARK INTER + INTRA:          -4.213
REMARK INTER:                  -4.077
REMARK INTRA:                  -0.135
REMARK UNBOUND:                -0.124
REMARK  Name = opt05.pdb
REMARK  2 active torsions:
REMARK  status: ('A' for Active; 'I' for Inactive)
REMARK    1  A    between atoms: C_2  and  C_4
REMARK    2  A    between atoms: C_5  and  C_6
REMARK                            x       y       z     vdW  Elec       q    Type
REMARK                         _______ _______ _______ _____ _____    ______ ____
ROOT
ATOM      1  C   UNL     1      11.761  13.604  43.875  0.00  0.00    +0.000 A 
ATOM      2  C   UNL     1      12.391  14.745  44.378  0.00  0.00    +0.000 A 
ATOM      3  C   UNL     1      12.532  12.488  43.541  0.00  0.00    +0.000 A 
ATOM      4  C   UNL     1      13.774  14.772  44.540  0.00  0.00    +0.000 A 
ATOM      5  C   UNL     1      13.915  12.513  43.709  0.00  0.00    +0.000 A 
ATOM      6  C   UNL     1      14.538  13.655  44.208  0.00  0.00    +0.000 A 
ENDROOT
BRANCH   1   8
ATOM      7  C   UNL     1       9.520  12.514  43.373  0.00  0.00    +0.000 C 
ATOM      8  C   UNL     1      10.290  13.557  43.723  0.00  0.00    +0.000 C 
BRANCH   7  10
ATOM      9  O   UNL     1       7.441  13.454  43.662  0.00  0.00    +0.000 OA
ATOM     10  C   UNL     1       8.050  12.508  43.207  0.00  0.00    +0.000 C 
ATOM     11  O   UNL     1       7.540  11.561  42.640  0.00  0.00    +0.000 OA
ENDBRANCH   7  10
ENDBRANCH   1   8
TORSDOF 2
ENDMDL
