MODEL 1
REMARK VINA RESULT:    -6.499      0.000      0.000
REMARK INTER + INTRA:         -10.017
REMARK INTER:                  -9.158
REMARK INTRA:                  -0.858
REMARK UNBOUND:                -0.858
REMARK  Name = opt02.pdb
REMARK  12 active torsions:
REMARK  status: ('A' for Active; 'I' for Inactive)
REMARK    1  A    between atoms: C_5  and  O_9
REMARK    2  A    between atoms: C_8  and  C_15
REMARK    3  A    between atoms: C_10  and  C_17
REMARK    4  A    between atoms: C_12  and  O_19
REMARK    5  A    between atoms: C_14  and  C_21
REMARK    6  A    between atoms: C_16  and  O_22
REMARK    7  A    between atoms: C_20  and  O_25
REMARK    8  A    between atoms: C_24  and  O_29
REMARK    9  A    between atoms: C_28  and  C_32
REMARK   10  A    between atoms: C_30  and  O_33
REMARK   11  A    between atoms: C_31  and  O_34
REMARK   12  A    between atoms: C_32  and  O_35
REMARK                            x       y       z     vdW  Elec       q    Type
REMARK                         _______ _______ _______ _____ _____    ______ ____
ROOT
ATOM      1  O   UNL     1      11.737  11.949  43.311  0.00  0.00    +0.000 OA
ATOM      2  C   UNL     1      11.433  13.121  43.417  0.00  0.00    +0.000 C 
ATOM      3  C   UNL     1      12.501  14.126  43.803  0.00  0.00    +0.000 A 
ATOM      4  C   UNL     1      10.019  13.594  43.131  0.00  0.00    +0.000 A 
ATOM      5  C   UNL     1      13.792  13.722  44.210  0.00  0.00    +0.000 A 
ATOM      6  C   UNL     1      12.233  15.497  43.712  0.00  0.00    +0.000 A 
ATOM      7  C   UNL     1       9.835  14.968  42.966  0.00  0.00    +0.000 A 
ATOM      8  C   UNL     1       8.895  12.727  42.999  0.00  0.00    +0.000 A 
ATOM      9  C   UNL     1      14.775  14.655  44.585  0.00  0.00    +0.000 A 
ATOM     10  C   UNL     1      10.922  15.968  43.171  0.00  0.00    +0.000 C 
ATOM     11  C   UNL     1      13.191  16.424  44.155  0.00  0.00    +0.000 A 
ATOM     12  C   UNL     1       8.588  15.470  42.645  0.00  0.00    +0.000 A 
ATOM     13  C   UNL     1       7.625  13.242  42.585  0.00  0.00    +0.000 A 
ATOM     14  C   UNL     1       8.995  11.255  43.430  0.00  0.00    +0.000 C 
ATOM     15  C   UNL     1      14.394  15.993  44.697  0.00  0.00    +0.000 A 
ATOM     16  O   UNL     1      10.706  17.148  42.961  0.00  0.00    +0.000 OA
ATOM     17  C   UNL     1       7.503  14.644  42.478  0.00  0.00    +0.000 A 
ENDROOT
BRANCH   9  18
ATOM     18  C   UNL     1      16.239  14.165  44.618  0.00  0.00    +0.000 C 
ATOM     19  O   UNL     1      16.472  13.476  43.355  0.00  0.00    +0.000 OA
ATOM     20  C   UNL     1      17.450  15.122  44.820  0.00  0.00    +0.000 C 
ATOM     21  C   UNL     1      16.467  14.330  42.178  0.00  0.00    +0.000 C 
ATOM     22  C   UNL     1      17.801  16.003  43.578  0.00  0.00    +0.000 C 
ATOM     23  C   UNL     1      17.702  15.259  42.228  0.00  0.00    +0.000 C 
BRANCH  20  24
ATOM     24  O   UNL     1      18.568  14.267  45.092  0.00  0.00    +0.000 OA
ATOM     25  H   UNL     1      18.290  13.662  45.813  0.00  0.00    +0.000 HD
ENDBRANCH  20  24
BRANCH  22  26
ATOM     26  O   UNL     1      19.112  16.546  43.730  0.00  0.00    +0.000 OA
ATOM     27  H   UNL     1      18.993  17.403  44.170  0.00  0.00    +0.000 HD
ENDBRANCH  22  26
BRANCH  23  28
ATOM     28  O   UNL     1      17.559  16.266  41.223  0.00  0.00    +0.000 OA
ATOM     29  H   UNL     1      16.835  16.859  41.516  0.00  0.00    +0.000 HD
ENDBRANCH  23  28
BRANCH  21  30
ATOM     30  C   UNL     1      16.427  13.441  40.917  0.00  0.00    +0.000 C 
BRANCH  30  31
ATOM     31  O   UNL     1      17.657  13.520  40.198  0.00  0.00    +0.000 OA
ATOM     32  H   UNL     1      17.940  14.453  40.231  0.00  0.00    +0.000 HD
ENDBRANCH  30  31
ENDBRANCH  21  30
ENDBRANCH   9  18
BRANCH  13  33
ATOM     33  C   UNL     1       6.434  12.341  42.223  0.00  0.00    +0.000 C 
ATOM     34  O   UNL     1       6.421  11.713  41.184  0.00  0.00    +0.000 OA
ATOM     35  O   UNL     1       5.451  12.327  42.936  0.00  0.00    +0.000 OA
ENDBRANCH  13  33
BRANCH  11  36
ATOM     36  O   UNL     1      13.014  17.778  44.045  0.00  0.00    +0.000 OA
ATOM     37  H   UNL     1      13.431  18.069  43.198  0.00  0.00    +0.000 HD
ENDBRANCH  11  36
BRANCH   5  38
ATOM     38  O   UNL     1      14.126  12.394  44.278  0.00  0.00    +0.000 OA
ATOM     39  H   UNL     1      14.938  12.249  43.745  0.00  0.00    +0.000 HD
ENDBRANCH   5  38
BRANCH  15  40
ATOM     40  O   UNL     1      15.152  16.941  45.306  0.00  0.00    +0.000 OA
ATOM     41  H   UNL     1      14.758  17.085  46.192  0.00  0.00    +0.000 HD
ENDBRANCH  15  40
BRANCH  17  42
ATOM     42  O   UNL     1       6.358  15.329  42.215  0.00  0.00    +0.000 OA
ATOM     43  H   UNL     1       6.620  16.236  42.013  0.00  0.00    +0.000 HD
ENDBRANCH  17  42
TORSDOF 11
ENDMDL
MODEL 2
REMARK VINA RESULT:    -6.402      1.730      3.974
REMARK INTER + INTRA:          -9.880
REMARK INTER:                  -9.044
REMARK INTRA:                  -0.836
REMARK UNBOUND:                -0.858
REMARK  Name = opt02.pdb
REMARK  12 active torsions:
REMARK  status: ('A' for Active; 'I' for Inactive)
REMARK    1  A    between atoms: C_5  and  O_9
REMARK    2  A    between atoms: C_8  and  C_15
REMARK    3  A    between atoms: C_10  and  C_17
REMARK    4  A    between atoms: C_12  and  O_19
REMARK    5  A    between atoms: C_14  and  C_21
REMARK    6  A    between atoms: C_16  and  O_22
REMARK    7  A    between atoms: C_20  and  O_25
REMARK    8  A    between atoms: C_24  and  O_29
REMARK    9  A    between atoms: C_28  and  C_32
REMARK   10  A    between atoms: C_30  and  O_33
REMARK   11  A    between atoms: C_31  and  O_34
REMARK   12  A    between atoms: C_32  and  O_35
REMARK                            x       y       z     vdW  Elec       q    Type
REMARK                         _______ _______ _______ _____ _____    ______ ____
ROOT
ATOM      1  O   UNL     1      11.880  16.593  41.734  0.00  0.00    +0.000 OA
ATOM      2  C   UNL     1      12.108  15.471  42.141  0.00  0.00    +0.000 C 
ATOM      3  C   UNL     1      13.529  15.100  42.520  0.00  0.00    +0.000 A 
ATOM      4  C   UNL     1      10.992  14.456  42.312  0.00  0.00    +0.000 A 
ATOM      5  C   UNL     1      14.619  15.958  42.253  0.00  0.00    +0.000 A 
ATOM      6  C   UNL     1      13.778  13.901  43.199  0.00  0.00    +0.000 A 
ATOM      7  C   UNL     1      11.282  13.321  43.072  0.00  0.00    +0.000 A 
ATOM      8  C   UNL     1       9.681  14.607  41.771  0.00  0.00    +0.000 A 
ATOM      9  C   UNL     1      15.938  15.604  42.589  0.00  0.00    +0.000 A 
ATOM     10  C   UNL     1      12.641  13.022  43.607  0.00  0.00    +0.000 C 
ATOM     11  C   UNL     1      15.103  13.518  43.468  0.00  0.00    +0.000 A 
ATOM     12  C   UNL     1      10.300  12.381  43.322  0.00  0.00    +0.000 A 
ATOM     13  C   UNL     1       8.647  13.675  42.101  0.00  0.00    +0.000 A 
ATOM     14  C   UNL     1       9.396  15.691  40.719  0.00  0.00    +0.000 C 
ATOM     15  C   UNL     1      16.166  14.308  43.055  0.00  0.00    +0.000 A 
ATOM     16  O   UNL     1      12.813  12.040  44.306  0.00  0.00    +0.000 OA
ATOM     17  C   UNL     1       9.023  12.531  42.838  0.00  0.00    +0.000 A 
ENDROOT
BRANCH   9  18
ATOM     18  C   UNL     1      16.984  16.739  42.636  0.00  0.00    +0.000 C 
ATOM     19  O   UNL     1      16.344  17.863  43.307  0.00  0.00    +0.000 OA
ATOM     20  C   UNL     1      18.382  16.577  43.301  0.00  0.00    +0.000 C 
ATOM     21  C   UNL     1      16.059  17.658  44.718  0.00  0.00    +0.000 C 
ATOM     22  C   UNL     1      18.366  16.564  44.863  0.00  0.00    +0.000 C 
ATOM     23  C   UNL     1      17.396  17.587  45.493  0.00  0.00    +0.000 C 
BRANCH  20  24
ATOM     24  O   UNL     1      19.141  17.715  42.871  0.00  0.00    +0.000 OA
ATOM     25  H   UNL     1      19.477  17.505  41.973  0.00  0.00    +0.000 HD
ENDBRANCH  20  24
BRANCH  22  26
ATOM     26  O   UNL     1      19.685  16.788  45.358  0.00  0.00    +0.000 OA
ATOM     27  H   UNL     1      19.902  17.705  45.126  0.00  0.00    +0.000 HD
ENDBRANCH  22  26
BRANCH  23  28
ATOM     28  O   UNL     1      17.132  17.126  46.821  0.00  0.00    +0.000 OA
ATOM     29  H   UNL     1      17.984  17.153  47.306  0.00  0.00    +0.000 HD
ENDBRANCH  23  28
BRANCH  21  30
ATOM     30  C   UNL     1      15.131  18.788  45.210  0.00  0.00    +0.000 C 
BRANCH  30  31
ATOM     31  O   UNL     1      14.537  18.450  46.463  0.00  0.00    +0.000 OA
ATOM     32  H   UNL     1      14.007  17.644  46.312  0.00  0.00    +0.000 HD
ENDBRANCH  30  31
ENDBRANCH  21  30
ENDBRANCH   9  18
BRANCH  13  33
ATOM     33  C   UNL     1       7.173  13.892  41.724  0.00  0.00    +0.000 C 
ATOM     34  O   UNL     1       6.498  14.721  42.300  0.00  0.00    +0.000 OA
ATOM     35  O   UNL     1       6.646  13.162  40.910  0.00  0.00    +0.000 OA
ENDBRANCH  13  33
BRANCH  11  36
ATOM     36  O   UNL     1      15.414  12.385  44.174  0.00  0.00    +0.000 OA
ATOM     37  H   UNL     1      16.300  12.073  43.870  0.00  0.00    +0.000 HD
ENDBRANCH  11  36
BRANCH   5  38
ATOM     38  O   UNL     1      14.430  17.164  41.629  0.00  0.00    +0.000 OA
ATOM     39  H   UNL     1      13.823  17.030  40.868  0.00  0.00    +0.000 HD
ENDBRANCH   5  38
BRANCH  15  40
ATOM     40  O   UNL     1      17.401  13.752  43.151  0.00  0.00    +0.000 OA
ATOM     41  H   UNL     1      17.553  13.575  44.103  0.00  0.00    +0.000 HD
ENDBRANCH  15  40
BRANCH  17  42
ATOM     42  O   UNL     1       8.218  11.479  43.148  0.00  0.00    +0.000 OA
ATOM     43  H   UNL     1       7.956  11.595  44.070  0.00  0.00    +0.000 HD
ENDBRANCH  17  42
TORSDOF 11
ENDMDL
MODEL 3
REMARK VINA RESULT:    -6.379      2.087      8.969
REMARK INTER + INTRA:          -9.848
REMARK INTER:                  -9.822
REMARK INTRA:                  -0.026
REMARK UNBOUND:                -0.858
REMARK  Name = opt02.pdb
REMARK  12 active torsions:
REMARK  status: ('A' for Active; 'I' for Inactive)
REMARK    1  A    between atoms: C_5  and  O_9
REMARK    2  A    between atoms: C_8  and  C_15
REMARK    3  A    between atoms: C_10  and  C_17
REMARK    4  A    between atoms: C_12  and  O_19
REMARK    5  A    between atoms: C_14  and  C_21
REMARK    6  A    between atoms: C_16  and  O_22
REMARK    7  A    between atoms: C_20  and  O_25
REMARK    8  A    between atoms: C_24  and  O_29
REMARK    9  A    between atoms: C_28  and  C_32
REMARK   10  A    between atoms: C_30  and  O_33
REMARK   11  A    between atoms: C_31  and  O_34
REMARK   12  A    between atoms: C_32  and  O_35
REMARK                            x       y       z     vdW  Elec       q    Type
REMARK                         _______ _______ _______ _____ _____    ______ ____
ROOT
ATOM      1  O   UNL     1      12.135  16.796  43.182  0.00  0.00    +0.000 OA
ATOM      2  C   UNL     1      12.410  15.658  43.508  0.00  0.00    +0.000 C 
ATOM      3  C   UNL     1      11.442  14.541  43.169  0.00  0.00    +0.000 A 
ATOM      4  C   UNL     1      13.718  15.336  44.209  0.00  0.00    +0.000 A 
ATOM      5  C   UNL     1      10.157  14.803  42.642  0.00  0.00    +0.000 A 
ATOM      6  C   UNL     1      11.834  13.206  43.328  0.00  0.00    +0.000 A 
ATOM      7  C   UNL     1      14.093  13.992  44.259  0.00  0.00    +0.000 A 
ATOM      8  C   UNL     1      14.580  16.314  44.785  0.00  0.00    +0.000 A 
ATOM      9  C   UNL     1       9.254  13.767  42.345  0.00  0.00    +0.000 A 
ATOM     10  C   UNL     1      13.225  12.883  43.767  0.00  0.00    +0.000 C 
ATOM     11  C   UNL     1      10.905  12.177  43.100  0.00  0.00    +0.000 A 
ATOM     12  C   UNL     1      15.298  13.626  44.827  0.00  0.00    +0.000 A 
ATOM     13  C   UNL     1      15.863  15.941  45.298  0.00  0.00    +0.000 A 
ATOM     14  C   UNL     1      14.090  17.757  44.990  0.00  0.00    +0.000 C 
ATOM     15  C   UNL     1       9.600  12.471  42.732  0.00  0.00    +0.000 A 
ATOM     16  O   UNL     1      13.635  11.737  43.794  0.00  0.00    +0.000 OA
ATOM     17  C   UNL     1      16.156  14.561  45.354  0.00  0.00    +0.000 A 
ENDROOT
BRANCH   9  18
ATOM     18  C   UNL     1       8.068  14.107  41.417  0.00  0.00    +0.000 C 
ATOM     19  O   UNL     1       6.947  13.289  41.862  0.00  0.00    +0.000 OA
ATOM     20  C   UNL     1       7.510  15.551  41.249  0.00  0.00    +0.000 C 
ATOM     21  C   UNL     1       6.415  13.633  43.170  0.00  0.00    +0.000 C 
ATOM     22  C   UNL     1       6.677  16.076  42.462  0.00  0.00    +0.000 C 
ATOM     23  C   UNL     1       5.738  15.021  43.086  0.00  0.00    +0.000 C 
BRANCH  20  24
ATOM     24  O   UNL     1       6.647  15.493  40.105  0.00  0.00    +0.000 OA
ATOM     25  H   UNL     1       6.630  14.557  39.814  0.00  0.00    +0.000 HD
ENDBRANCH  20  24
BRANCH  22  26
ATOM     26  O   UNL     1       5.919  17.217  42.065  0.00  0.00    +0.000 OA
ATOM     27  H   UNL     1       5.110  16.868  41.656  0.00  0.00    +0.000 HD
ENDBRANCH  22  26
BRANCH  23  28
ATOM     28  O   UNL     1       5.451  15.473  44.413  0.00  0.00    +0.000 OA
ATOM     29  H   UNL     1       5.738  14.761  45.023  0.00  0.00    +0.000 HD
ENDBRANCH  23  28
BRANCH  21  30
ATOM     30  C   UNL     1       5.453  12.516  43.628  0.00  0.00    +0.000 C 
BRANCH  30  31
ATOM     31  O   UNL     1       5.945  11.232  43.247  0.00  0.00    +0.000 OA
ATOM     32  H   UNL     1       6.726  11.055  43.805  0.00  0.00    +0.000 HD
ENDBRANCH  30  31
ENDBRANCH  21  30
ENDBRANCH   9  18
BRANCH  13  33
ATOM     33  C   UNL     1      16.919  16.966  45.739  0.00  0.00    +0.000 C 
ATOM     34  O   UNL     1      17.530  17.622  44.920  0.00  0.00    +0.000 OA
ATOM     35  O   UNL     1      17.219  17.055  46.912  0.00  0.00    +0.000 OA
ENDBRANCH  13  33
BRANCH  11  36
ATOM     36  O   UNL     1      11.238  10.851  43.186  0.00  0.00    +0.000 OA
ATOM     37  H   UNL     1      10.781  10.475  43.976  0.00  0.00    +0.000 HD
ENDBRANCH  11  36
BRANCH   5  38
ATOM     38  O   UNL     1       9.734  16.089  42.425  0.00  0.00    +0.000 OA
ATOM     39  H   UNL     1       9.083  16.326  43.122  0.00  0.00    +0.000 HD
ENDBRANCH   5  38
BRANCH  15  40
ATOM     40  O   UNL     1       8.721  11.436  42.759  0.00  0.00    +0.000 OA
ATOM     41  H   UNL     1       8.128  11.595  43.523  0.00  0.00    +0.000 HD
ENDBRANCH  15  40
BRANCH  17  42
ATOM     42  O   UNL     1      17.264  14.001  45.911  0.00  0.00    +0.000 OA
ATOM     43  H   UNL     1      17.801  13.669  45.181  0.00  0.00    +0.000 HD
ENDBRANCH  17  42
TORSDOF 11
ENDMDL
MODEL 4
REMARK VINA RESULT:    -6.341      1.825      8.543
REMARK INTER + INTRA:          -9.794
REMARK INTER:                  -9.845
REMARK INTRA:                   0.052
REMARK UNBOUND:                -0.858
REMARK  Name = opt02.pdb
REMARK  12 active torsions:
REMARK  status: ('A' for Active; 'I' for Inactive)
REMARK    1  A    between atoms: C_5  and  O_9
REMARK    2  A    between atoms: C_8  and  C_15
REMARK    3  A    between atoms: C_10  and  C_17
REMARK    4  A    between atoms: C_12  and  O_19
REMARK    5  A    between atoms: C_14  and  C_21
REMARK    6  A    between atoms: C_16  and  O_22
REMARK    7  A    between atoms: C_20  and  O_25
REMARK    8  A    between atoms: C_24  and  O_29
REMARK    9  A    between atoms: C_28  and  C_32
REMARK   10  A    between atoms: C_30  and  O_33
REMARK   11  A    between atoms: C_31  and  O_34
REMARK   12  A    between atoms: C_32  and  O_35
REMARK                            x       y       z     vdW  Elec       q    Type
REMARK                         _______ _______ _______ _____ _____    ______ ____
ROOT
ATOM      1  O   UNL     1      11.902  13.304  44.978  0.00  0.00    +0.000 OA
ATOM      2  C   UNL     1      12.020  14.362  44.393  0.00  0.00    +0.000 C 
ATOM      3  C   UNL     1      10.774  15.083  43.915  0.00  0.00    +0.000 A 
ATOM      4  C   UNL     1      13.386  14.989  44.170  0.00  0.00    +0.000 A 
ATOM      5  C   UNL     1       9.497  14.481  43.976  0.00  0.00    +0.000 A 
ATOM      6  C   UNL     1      10.866  16.398  43.446  0.00  0.00    +0.000 A 
ATOM      7  C   UNL     1      13.409  16.330  43.784  0.00  0.00    +0.000 A 
ATOM      8  C   UNL     1      14.622  14.303  44.354  0.00  0.00    +0.000 A 
ATOM      9  C   UNL     1       8.345  15.144  43.517  0.00  0.00    +0.000 A 
ATOM     10  C   UNL     1      12.178  17.114  43.478  0.00  0.00    +0.000 C 
ATOM     11  C   UNL     1       9.726  17.030  42.921  0.00  0.00    +0.000 A 
ATOM     12  C   UNL     1      14.614  16.987  43.620  0.00  0.00    +0.000 A 
ATOM     13  C   UNL     1      15.865  15.007  44.265  0.00  0.00    +0.000 A 
ATOM     14  C   UNL     1      14.645  12.774  44.516  0.00  0.00    +0.000 C 
ATOM     15  C   UNL     1       8.515  16.358  42.850  0.00  0.00    +0.000 A 
ATOM     16  O   UNL     1      12.267  18.295  43.196  0.00  0.00    +0.000 OA
ATOM     17  C   UNL     1      15.813  16.349  43.830  0.00  0.00    +0.000 A 
ENDROOT
BRANCH   9  18
ATOM     18  C   UNL     1       6.980  14.595  43.986  0.00  0.00    +0.000 C 
ATOM     19  O   UNL     1       6.051  14.801  42.882  0.00  0.00    +0.000 OA
ATOM     20  C   UNL     1       6.774  13.126  44.458  0.00  0.00    +0.000 C 
ATOM     21  C   UNL     1       6.310  13.994  41.701  0.00  0.00    +0.000 C 
ATOM     22  C   UNL     1       6.777  12.064  43.313  0.00  0.00    +0.000 C 
ATOM     23  C   UNL     1       6.030  12.510  42.036  0.00  0.00    +0.000 C 
BRANCH  20  24
ATOM     24  O   UNL     1       5.483  13.107  45.083  0.00  0.00    +0.000 OA
ATOM     25  H   UNL     1       5.629  12.862  46.021  0.00  0.00    +0.000 HD
ENDBRANCH  20  24
BRANCH  22  26
ATOM     26  O   UNL     1       6.218  10.841  43.790  0.00  0.00    +0.000 OA
ATOM     27  H   UNL     1       5.531  11.096  44.427  0.00  0.00    +0.000 HD
ENDBRANCH  22  26
BRANCH  23  28
ATOM     28  O   UNL     1       6.531  11.697  40.971  0.00  0.00    +0.000 OA
ATOM     29  H   UNL     1       6.986  10.934  41.387  0.00  0.00    +0.000 HD
ENDBRANCH  23  28
BRANCH  21  30
ATOM     30  C   UNL     1       5.451  14.525  40.534  0.00  0.00    +0.000 C 
BRANCH  30  31
ATOM     31  O   UNL     1       6.214  15.383  39.687  0.00  0.00    +0.000 OA
ATOM     32  H   UNL     1       5.844  16.280  39.793  0.00  0.00    +0.000 HD
ENDBRANCH  30  31
ENDBRANCH  21  30
ENDBRANCH   9  18
BRANCH  13  33
ATOM     33  C   UNL     1      17.212  14.381  44.655  0.00  0.00    +0.000 C 
ATOM     34  O   UNL     1      17.432  14.039  45.799  0.00  0.00    +0.000 OA
ATOM     35  O   UNL     1      18.105  14.313  43.835  0.00  0.00    +0.000 OA
ENDBRANCH  13  33
BRANCH  11  36
ATOM     36  O   UNL     1       9.735  18.332  42.495  0.00  0.00    +0.000 OA
ATOM     37  H   UNL     1       9.868  18.908  43.286  0.00  0.00    +0.000 HD
ENDBRANCH  11  36
BRANCH   5  38
ATOM     38  O   UNL     1       9.340  13.211  44.466  0.00  0.00    +0.000 OA
ATOM     39  H   UNL     1      10.213  12.886  44.778  0.00  0.00    +0.000 HD
ENDBRANCH   5  38
BRANCH  15  40
ATOM     40  O   UNL     1       7.536  16.958  42.123  0.00  0.00    +0.000 OA
ATOM     41  H   UNL     1       7.162  17.664  42.690  0.00  0.00    +0.000 HD
ENDBRANCH  15  40
BRANCH  17  42
ATOM     42  O   UNL     1      16.883  17.147  43.569  0.00  0.00    +0.000 OA
ATOM     43  H   UNL     1      16.553  18.054  43.551  0.00  0.00    +0.000 HD
ENDBRANCH  17  42
TORSDOF 11
ENDMDL
MODEL 5
REMARK VINA RESULT:    -6.006      1.576      3.346
REMARK INTER + INTRA:          -9.321
REMARK INTER:                  -9.300
REMARK INTRA:                  -0.022
REMARK UNBOUND:                -0.858
REMARK  Name = opt02.pdb
REMARK  12 active torsions:
REMARK  status: ('A' for Active; 'I' for Inactive)
REMARK    1  A    between atoms: C_5  and  O_9
REMARK    2  A    between atoms: C_8  and  C_15
REMARK    3  A    between atoms: C_10  and  C_17
REMARK    4  A    between atoms: C_12  and  O_19
REMARK    5  A    between atoms: C_14  and  C_21
REMARK    6  A    between atoms: C_16  and  O_22
REMARK    7  A    between atoms: C_20  and  O_25
REMARK    8  A    between atoms: C_24  and  O_29
REMARK    9  A    between atoms: C_28  and  C_32
REMARK   10  A    between atoms: C_30  and  O_33
REMARK   11  A    between atoms: C_31  and  O_34
REMARK   12  A    between atoms: C_32  and  O_35
REMARK                            x       y       z     vdW  Elec       q    Type
REMARK                         _______ _______ _______ _____ _____    ______ ____
ROOT
ATOM      1  O   UNL     1      11.328  16.546  44.683  0.00  0.00    +0.000 OA
ATOM      2  C   UNL     1      11.532  15.428  44.252  0.00  0.00    +0.000 C 
ATOM      3  C   UNL     1      12.953  14.900  44.215  0.00  0.00    +0.000 A 
ATOM      4  C   UNL     1      10.386  14.544  43.790  0.00  0.00    +0.000 A 
ATOM      5  C   UNL     1      14.062  15.727  44.505  0.00  0.00    +0.000 A 
ATOM      6  C   UNL     1      13.187  13.548  43.940  0.00  0.00    +0.000 A 
ATOM      7  C   UNL     1      10.667  13.188  43.615  0.00  0.00    +0.000 A 
ATOM      8  C   UNL     1       9.059  15.010  43.553  0.00  0.00    +0.000 A 
ATOM      9  C   UNL     1      15.380  15.240  44.453  0.00  0.00    +0.000 A 
ATOM     10  C   UNL     1      12.036  12.613  43.748  0.00  0.00    +0.000 C 
ATOM     11  C   UNL     1      14.507  13.082  43.818  0.00  0.00    +0.000 A 
ATOM     12  C   UNL     1       9.663  12.310  43.253  0.00  0.00    +0.000 A 
ATOM     13  C   UNL     1       8.006  14.086  43.261  0.00  0.00    +0.000 A 
ATOM     14  C   UNL     1       8.769  16.517  43.474  0.00  0.00    +0.000 C 
ATOM     15  C   UNL     1      15.579  13.951  43.954  0.00  0.00    +0.000 A 
ATOM     16  O   UNL     1      12.203  11.413  43.632  0.00  0.00    +0.000 OA
ATOM     17  C   UNL     1       8.372  12.738  43.058  0.00  0.00    +0.000 A 
ENDROOT
BRANCH   9  18
ATOM     18  C   UNL     1      16.469  16.073  45.163  0.00  0.00    +0.000 C 
ATOM     19  O   UNL     1      17.687  15.914  44.378  0.00  0.00    +0.000 OA
ATOM     20  C   UNL     1      16.325  17.599  45.436  0.00  0.00    +0.000 C 
ATOM     21  C   UNL     1      17.653  16.524  43.059  0.00  0.00    +0.000 C 
ATOM     22  C   UNL     1      16.489  18.508  44.176  0.00  0.00    +0.000 C 
ATOM     23  C   UNL     1      17.615  18.061  43.218  0.00  0.00    +0.000 C 
BRANCH  20  24
ATOM     24  O   UNL     1      17.376  17.920  46.358  0.00  0.00    +0.000 OA
ATOM     25  H   UNL     1      17.922  17.110  46.453  0.00  0.00    +0.000 HD
ENDBRANCH  20  24
BRANCH  22  26
ATOM     26  O   UNL     1      16.713  19.857  44.582  0.00  0.00    +0.000 OA
ATOM     27  H   UNL     1      15.838  20.214  44.807  0.00  0.00    +0.000 HD
ENDBRANCH  22  26
BRANCH  23  28
ATOM     28  O   UNL     1      17.318  18.647  41.947  0.00  0.00    +0.000 OA
ATOM     29  H   UNL     1      18.123  19.130  41.662  0.00  0.00    +0.000 HD
ENDBRANCH  23  28
BRANCH  21  30
ATOM     30  C   UNL     1      18.869  16.027  42.248  0.00  0.00    +0.000 C 
BRANCH  30  31
ATOM     31  O   UNL     1      18.726  14.649  41.907  0.00  0.00    +0.000 OA
ATOM     32  H   UNL     1      18.297  14.621  41.031  0.00  0.00    +0.000 HD
ENDBRANCH  30  31
ENDBRANCH  21  30
ENDBRANCH   9  18
BRANCH  13  33
ATOM     33  C   UNL     1       6.527  14.494  43.202  0.00  0.00    +0.000 C 
ATOM     34  O   UNL     1       5.921  14.789  44.213  0.00  0.00    +0.000 OA
ATOM     35  O   UNL     1       5.925  14.431  42.150  0.00  0.00    +0.000 OA
ENDBRANCH  13  33
BRANCH  11  36
ATOM     36  O   UNL     1      14.806  11.762  43.602  0.00  0.00    +0.000 OA
ATOM     37  H   UNL     1      15.598  11.724  43.013  0.00  0.00    +0.000 HD
ENDBRANCH  11  36
BRANCH   5  38
ATOM     38  O   UNL     1      13.891  17.049  44.823  0.00  0.00    +0.000 OA
ATOM     39  H   UNL     1      14.773  17.444  45.001  0.00  0.00    +0.000 HD
ENDBRANCH   5  38
BRANCH  15  40
ATOM     40  O   UNL     1      16.796  13.466  43.594  0.00  0.00    +0.000 OA
ATOM     41  H   UNL     1      17.141  12.978  44.370  0.00  0.00    +0.000 HD
ENDBRANCH  15  40
BRANCH  17  42
ATOM     42  O   UNL     1       7.543  11.736  42.659  0.00  0.00    +0.000 OA
ATOM     43  H   UNL     1       8.030  10.911  42.778  0.00  0.00    +0.000 HD
ENDBRANCH  17  42
TORSDOF 11
ENDMDL
MODEL 6
REMARK VINA RESULT:    -5.908      1.565      3.833
REMARK INTER + INTRA:          -9.184
REMARK INTER:                  -8.614
REMARK INTRA:                  -0.569
REMARK UNBOUND:                -0.858
REMARK  Name = opt02.pdb
REMARK  12 active torsions:
REMARK  status: ('A' for Active; 'I' for Inactive)
REMARK    1  A    between atoms: C_5  and  O_9
REMARK    2  A    between atoms: C_8  and  C_15
REMARK    3  A    between atoms: C_10  and  C_17
REMARK    4  A    between atoms: C_12  and  O_19
REMARK    5  A    between atoms: C_14  and  C_21
REMARK    6  A    between atoms: C_16  and  O_22
REMARK    7  A    between atoms: C_20  and  O_25
REMARK    8  A    between atoms: C_24  and  O_29
REMARK    9  A    between atoms: C_28  and  C_32
REMARK   10  A    between atoms: C_30  and  O_33
REMARK   11  A    between atoms: C_31  and  O_34
REMARK   12  A    between atoms: C_32  and  O_35
REMARK                            x       y       z     vdW  Elec       q    Type
REMARK                         _______ _______ _______ _____ _____    ______ ____
ROOT
ATOM      1  O   UNL     1      11.344  17.033  43.230  0.00  0.00    +0.000 OA
ATOM      2  C   UNL     1      11.494  15.833  43.103  0.00  0.00    +0.000 C 
ATOM      3  C   UNL     1      12.878  15.292  42.803  0.00  0.00    +0.000 A 
ATOM      4  C   UNL     1      10.330  14.874  43.279  0.00  0.00    +0.000 A 
ATOM      5  C   UNL     1      13.961  16.146  42.497  0.00  0.00    +0.000 A 
ATOM      6  C   UNL     1      13.119  13.915  42.877  0.00  0.00    +0.000 A 
ATOM      7  C   UNL     1      10.645  13.522  43.432  0.00  0.00    +0.000 A 
ATOM      8  C   UNL     1       8.962  15.272  43.322  0.00  0.00    +0.000 A 
ATOM      9  C   UNL     1      15.240  15.641  42.202  0.00  0.00    +0.000 A 
ATOM     10  C   UNL     1      12.032  12.988  43.315  0.00  0.00    +0.000 C 
ATOM     11  C   UNL     1      14.378  13.409  42.511  0.00  0.00    +0.000 A 
ATOM     12  C   UNL     1       9.644  12.595  43.656  0.00  0.00    +0.000 A 
ATOM     13  C   UNL     1       7.938  14.323  43.636  0.00  0.00    +0.000 A 
ATOM     14  C   UNL     1       8.553  16.692  42.896  0.00  0.00    +0.000 C 
ATOM     15  C   UNL     1      15.378  14.259  42.064  0.00  0.00    +0.000 A 
ATOM     16  O   UNL     1      12.243  11.805  43.510  0.00  0.00    +0.000 OA
ATOM     17  C   UNL     1       8.324  12.969  43.737  0.00  0.00    +0.000 A 
ENDROOT
BRANCH   9  18
ATOM     18  C   UNL     1      16.425  16.628  42.282  0.00  0.00    +0.000 C 
ATOM     19  O   UNL     1      16.514  17.055  43.672  0.00  0.00    +0.000 OA
ATOM     20  C   UNL     1      17.873  16.251  41.851  0.00  0.00    +0.000 C 
ATOM     21  C   UNL     1      16.920  16.020  44.609  0.00  0.00    +0.000 C 
ATOM     22  C   UNL     1      18.626  15.308  42.842  0.00  0.00    +0.000 C 
ATOM     23  C   UNL     1      18.395  15.644  44.332  0.00  0.00    +0.000 C 
BRANCH  20  24
ATOM     24  O   UNL     1      18.585  17.495  41.787  0.00  0.00    +0.000 OA
ATOM     25  H   UNL     1      18.872  17.606  40.856  0.00  0.00    +0.000 HD
ENDBRANCH  20  24
BRANCH  22  26
ATOM     26  O   UNL     1      20.024  15.332  42.559  0.00  0.00    +0.000 OA
ATOM     27  H   UNL     1      20.113  15.789  41.706  0.00  0.00    +0.000 HD
ENDBRANCH  22  26
BRANCH  23  28
ATOM     28  O   UNL     1      18.711  14.458  45.066  0.00  0.00    +0.000 OA
ATOM     29  H   UNL     1      18.086  14.416  45.821  0.00  0.00    +0.000 HD
ENDBRANCH  23  28
BRANCH  21  30
ATOM     30  C   UNL     1      16.684  16.527  46.048  0.00  0.00    +0.000 C 
BRANCH  30  31
ATOM     31  O   UNL     1      17.870  17.111  46.584  0.00  0.00    +0.000 OA
ATOM     32  H   UNL     1      17.903  18.029  46.253  0.00  0.00    +0.000 HD
ENDBRANCH  30  31
ENDBRANCH  21  30
ENDBRANCH   9  18
BRANCH  13  33
ATOM     33  C   UNL     1       6.478  14.723  43.902  0.00  0.00    +0.000 C 
ATOM     34  O   UNL     1       6.166  15.298  44.926  0.00  0.00    +0.000 OA
ATOM     35  O   UNL     1       5.609  14.379  43.128  0.00  0.00    +0.000 OA
ENDBRANCH  13  33
BRANCH  11  36
ATOM     36  O   UNL     1      14.696  12.080  42.610  0.00  0.00    +0.000 OA
ATOM     37  H   UNL     1      15.589  12.013  43.026  0.00  0.00    +0.000 HD
ENDBRANCH  11  36
BRANCH   5  38
ATOM     38  O   UNL     1      13.795  17.506  42.453  0.00  0.00    +0.000 OA
ATOM     39  H   UNL     1      14.445  17.920  43.063  0.00  0.00    +0.000 HD
ENDBRANCH   5  38
BRANCH  15  40
ATOM     40  O   UNL     1      16.472  13.665  41.517  0.00  0.00    +0.000 OA
ATOM     41  H   UNL     1      17.246  13.997  42.016  0.00  0.00    +0.000 HD
ENDBRANCH  15  40
BRANCH  17  42
ATOM     42  O   UNL     1       7.489  11.910  43.911  0.00  0.00    +0.000 OA
ATOM     43  H   UNL     1       7.067  12.031  44.770  0.00  0.00    +0.000 HD
ENDBRANCH  17  42
TORSDOF 11
ENDMDL
MODEL 7
REMARK VINA RESULT:    -5.730      2.151      4.682
REMARK INTER + INTRA:          -8.933
REMARK INTER:                  -8.167
REMARK INTRA:                  -0.766
REMARK UNBOUND:                -0.858
REMARK  Name = opt02.pdb
REMARK  12 active torsions:
REMARK  status: ('A' for Active; 'I' for Inactive)
REMARK    1  A    between atoms: C_5  and  O_9
REMARK    2  A    between atoms: C_8  and  C_15
REMARK    3  A    between atoms: C_10  and  C_17
REMARK    4  A    between atoms: C_12  and  O_19
REMARK    5  A    between atoms: C_14  and  C_21
REMARK    6  A    between atoms: C_16  and  O_22
REMARK    7  A    between atoms: C_20  and  O_25
REMARK    8  A    between atoms: C_24  and  O_29
REMARK    9  A    between atoms: C_28  and  C_32
REMARK   10  A    between atoms: C_30  and  O_33
REMARK   11  A    between atoms: C_31  and  O_34
REMARK   12  A    between atoms: C_32  and  O_35
REMARK                            x       y       z     vdW  Elec       q    Type
REMARK                         _______ _______ _______ _____ _____    ______ ____
ROOT
ATOM      1  O   UNL     1      12.130  16.629  42.951  0.00  0.00    +0.000 OA
ATOM      2  C   UNL     1      12.791  15.641  42.701  0.00  0.00    +0.000 C 
ATOM      3  C   UNL     1      14.289  15.784  42.517  0.00  0.00    +0.000 A 
ATOM      4  C   UNL     1      12.148  14.268  42.610  0.00  0.00    +0.000 A 
ATOM      5  C   UNL     1      14.914  17.050  42.456  0.00  0.00    +0.000 A 
ATOM      6  C   UNL     1      15.097  14.642  42.454  0.00  0.00    +0.000 A 
ATOM      7  C   UNL     1      13.006  13.166  42.639  0.00  0.00    +0.000 A 
ATOM      8  C   UNL     1      10.742  14.045  42.526  0.00  0.00    +0.000 A 
ATOM      9  C   UNL     1      16.302  17.181  42.268  0.00  0.00    +0.000 A 
ATOM     10  C   UNL     1      14.491  13.288  42.636  0.00  0.00    +0.000 C 
ATOM     11  C   UNL     1      16.471  14.776  42.194  0.00  0.00    +0.000 A 
ATOM     12  C   UNL     1      12.492  11.883  42.620  0.00  0.00    +0.000 A 
ATOM     13  C   UNL     1      10.211  12.718  42.591  0.00  0.00    +0.000 A 
ATOM     14  C   UNL     1       9.788  15.213  42.225  0.00  0.00    +0.000 C 
ATOM     15  C   UNL     1      17.032  16.027  41.984  0.00  0.00    +0.000 A 
ATOM     16  O   UNL     1      15.181  12.287  42.713  0.00  0.00    +0.000 OA
ATOM     17  C   UNL     1      11.138  11.653  42.576  0.00  0.00    +0.000 A 
ENDROOT
BRANCH   9  18
ATOM     18  C   UNL     1      16.936  18.546  42.616  0.00  0.00    +0.000 C 
ATOM     19  O   UNL     1      16.384  18.940  43.906  0.00  0.00    +0.000 OA
ATOM     20  C   UNL     1      18.474  18.765  42.717  0.00  0.00    +0.000 C 
ATOM     21  C   UNL     1      16.801  18.118  45.031  0.00  0.00    +0.000 C 
ATOM     22  C   UNL     1      19.139  18.160  43.995  0.00  0.00    +0.000 C 
ATOM     23  C   UNL     1      18.310  18.345  45.285  0.00  0.00    +0.000 C 
BRANCH  20  24
ATOM     24  O   UNL     1      18.652  20.187  42.751  0.00  0.00    +0.000 OA
ATOM     25  H   UNL     1      19.609  20.346  42.899  0.00  0.00    +0.000 HD
ENDBRANCH  20  24
BRANCH  22  26
ATOM     26  O   UNL     1      20.436  18.726  44.175  0.00  0.00    +0.000 OA
ATOM     27  H   UNL     1      21.028  18.217  43.598  0.00  0.00    +0.000 HD
ENDBRANCH  22  26
BRANCH  23  28
ATOM     28  O   UNL     1      18.773  17.353  46.207  0.00  0.00    +0.000 OA
ATOM     29  H   UNL     1      19.531  17.747  46.689  0.00  0.00    +0.000 HD
ENDBRANCH  23  28
BRANCH  21  30
ATOM     30  C   UNL     1      15.922  18.461  46.253  0.00  0.00    +0.000 C 
BRANCH  30  31
ATOM     31  O   UNL     1      16.691  19.099  47.271  0.00  0.00    +0.000 OA
ATOM     32  H   UNL     1      17.511  19.413  46.846  0.00  0.00    +0.000 HD
ENDBRANCH  30  31
ENDBRANCH  21  30
ENDBRANCH   9  18
BRANCH  13  33
ATOM     33  C   UNL     1       8.709  12.422  42.715  0.00  0.00    +0.000 C 
ATOM     34  O   UNL     1       8.026  12.240  41.727  0.00  0.00    +0.000 OA
ATOM     35  O   UNL     1       8.174  12.465  43.804  0.00  0.00    +0.000 OA
ENDBRANCH  13  33
BRANCH  11  36
ATOM     36  O   UNL     1      17.325  13.705  42.173  0.00  0.00    +0.000 OA
ATOM     37  H   UNL     1      17.178  13.217  41.327  0.00  0.00    +0.000 HD
ENDBRANCH  11  36
BRANCH   5  38
ATOM     38  O   UNL     1      14.180  18.203  42.555  0.00  0.00    +0.000 OA
ATOM     39  H   UNL     1      14.735  18.954  42.248  0.00  0.00    +0.000 HD
ENDBRANCH   5  38
BRANCH  15  40
ATOM     40  O   UNL     1      18.307  16.042  41.513  0.00  0.00    +0.000 OA
ATOM     41  H   UNL     1      18.629  15.118  41.555  0.00  0.00    +0.000 HD
ENDBRANCH  15  40
BRANCH  17  42
ATOM     42  O   UNL     1      10.834  10.329  42.514  0.00  0.00    +0.000 OA
ATOM     43  H   UNL     1      10.516  10.161  41.618  0.00  0.00    +0.000 HD
ENDBRANCH  17  42
TORSDOF 11
ENDMDL
MODEL 8
REMARK VINA RESULT:    -5.685      1.819      4.108
REMARK INTER + INTRA:          -8.869
REMARK INTER:                  -8.252
REMARK INTRA:                  -0.617
REMARK UNBOUND:                -0.858
REMARK  Name = opt02.pdb
REMARK  12 active torsions:
REMARK  status: ('A' for Active; 'I' for Inactive)
REMARK    1  A    between atoms: C_5  and  O_9
REMARK    2  A    between atoms: C_8  and  C_15
REMARK    3  A    between atoms: C_10  and  C_17
REMARK    4  A    between atoms: C_12  and  O_19
REMARK    5  A    between atoms: C_14  and  C_21
REMARK    6  A    between atoms: C_16  and  O_22
REMARK    7  A    between atoms: C_20  and  O_25
REMARK    8  A    between atoms: C_24  and  O_29
REMARK    9  A    between atoms: C_28  and  C_32
REMARK   10  A    between atoms: C_30  and  O_33
REMARK   11  A    between atoms: C_31  and  O_34
REMARK   12  A    between atoms: C_32  and  O_35
REMARK                            x       y       z     vdW  Elec       q    Type
REMARK                         _______ _______ _______ _____ _____    ______ ____
ROOT
ATOM      1  O   UNL     1      12.028  17.550  42.743  0.00  0.00    +0.000 OA
ATOM      2  C   UNL     1      12.107  16.355  42.951  0.00  0.00    +0.000 C 
ATOM      3  C   UNL     1      13.467  15.686  42.893  0.00  0.00    +0.000 A 
ATOM      4  C   UNL     1      10.878  15.537  43.304  0.00  0.00    +0.000 A 
ATOM      5  C   UNL     1      14.615  16.372  42.439  0.00  0.00    +0.000 A 
ATOM      6  C   UNL     1      13.616  14.370  43.347  0.00  0.00    +0.000 A 
ATOM      7  C   UNL     1      11.098  14.263  43.832  0.00  0.00    +0.000 A 
ATOM      8  C   UNL     1       9.537  15.998  43.153  0.00  0.00    +0.000 A 
ATOM      9  C   UNL     1      15.872  15.744  42.370  0.00  0.00    +0.000 A 
ATOM     10  C   UNL     1      12.452  13.650  43.949  0.00  0.00    +0.000 C 
ATOM     11  C   UNL     1      14.856  13.724  43.209  0.00  0.00    +0.000 A 
ATOM     12  C   UNL     1      10.031  13.481  44.233  0.00  0.00    +0.000 A 
ATOM     13  C   UNL     1       8.441  15.220  43.645  0.00  0.00    +0.000 A 
ATOM     14  C   UNL     1       9.240  17.268  42.339  0.00  0.00    +0.000 C 
ATOM     15  C   UNL     1      15.929  14.371  42.615  0.00  0.00    +0.000 A 
ATOM     16  O   UNL     1      12.579  12.555  44.466  0.00  0.00    +0.000 OA
ATOM     17  C   UNL     1       8.736  13.927  44.128  0.00  0.00    +0.000 A 
ENDROOT
BRANCH   9  18
ATOM     18  C   UNL     1      17.112  16.657  42.257  0.00  0.00    +0.000 C 
ATOM     19  O   UNL     1      16.827  17.842  43.055  0.00  0.00    +0.000 OA
ATOM     20  C   UNL     1      18.543  16.197  42.660  0.00  0.00    +0.000 C 
ATOM     21  C   UNL     1      16.750  17.614  44.489  0.00  0.00    +0.000 C 
ATOM     22  C   UNL     1      18.790  16.099  44.200  0.00  0.00    +0.000 C 
ATOM     23  C   UNL     1      18.158  17.249  45.014  0.00  0.00    +0.000 C 
BRANCH  20  24
ATOM     24  O   UNL     1      19.427  17.194  42.129  0.00  0.00    +0.000 OA
ATOM     25  H   UNL     1      19.407  17.095  41.153  0.00  0.00    +0.000 HD
ENDBRANCH  20  24
BRANCH  22  26
ATOM     26  O   UNL     1      20.191  16.042  44.459  0.00  0.00    +0.000 OA
ATOM     27  H   UNL     1      20.445  16.938  44.735  0.00  0.00    +0.000 HD
ENDBRANCH  22  26
BRANCH  23  28
ATOM     28  O   UNL     1      18.037  16.773  46.358  0.00  0.00    +0.000 OA
ATOM     29  H   UNL     1      18.903  16.927  46.793  0.00  0.00    +0.000 HD
ENDBRANCH  23  28
BRANCH  21  30
ATOM     30  C   UNL     1      16.158  18.870  45.164  0.00  0.00    +0.000 C 
BRANCH  30  31
ATOM     31  O   UNL     1      15.613  18.552  46.444  0.00  0.00    +0.000 OA
ATOM     32  H   UNL     1      15.420  19.402  46.883  0.00  0.00    +0.000 HD
ENDBRANCH  30  31
ENDBRANCH  21  30
ENDBRANCH   9  18
BRANCH  13  33
ATOM     33  C   UNL     1       6.999  15.748  43.703  0.00  0.00    +0.000 C 
ATOM     34  O   UNL     1       6.681  16.605  44.502  0.00  0.00    +0.000 OA
ATOM     35  O   UNL     1       6.143  15.238  43.010  0.00  0.00    +0.000 OA
ENDBRANCH  13  33
BRANCH  11  36
ATOM     36  O   UNL     1      15.084  12.457  43.680  0.00  0.00    +0.000 OA
ATOM     37  H   UNL     1      14.225  12.098  44.009  0.00  0.00    +0.000 HD
ENDBRANCH  11  36
BRANCH   5  38
ATOM     38  O   UNL     1      14.539  17.676  42.022  0.00  0.00    +0.000 OA
ATOM     39  H   UNL     1      15.426  17.956  41.707  0.00  0.00    +0.000 HD
ENDBRANCH   5  38
BRANCH  15  40
ATOM     40  O   UNL     1      17.006  13.600  42.316  0.00  0.00    +0.000 OA
ATOM     41  H   UNL     1      17.765  13.982  42.803  0.00  0.00    +0.000 HD
ENDBRANCH  15  40
BRANCH  17  42
ATOM     42  O   UNL     1       7.828  12.996  44.526  0.00  0.00    +0.000 OA
ATOM     43  H   UNL     1       8.041  12.182  44.053  0.00  0.00    +0.000 HD
ENDBRANCH  17  42
TORSDOF 11
ENDMDL
MODEL 9
REMARK VINA RESULT:    -5.613      1.520      1.835
REMARK INTER + INTRA:          -8.768
REMARK INTER:                  -8.027
REMARK INTRA:                  -0.741
REMARK UNBOUND:                -0.858
REMARK  Name = opt02.pdb
REMARK  12 active torsions:
REMARK  status: ('A' for Active; 'I' for Inactive)
REMARK    1  A    between atoms: C_5  and  O_9
REMARK    2  A    between atoms: C_8  and  C_15
REMARK    3  A    between atoms: C_10  and  C_17
REMARK    4  A    between atoms: C_12  and  O_19
REMARK    5  A    between atoms: C_14  and  C_21
REMARK    6  A    between atoms: C_16  and  O_22
REMARK    7  A    between atoms: C_20  and  O_25
REMARK    8  A    between atoms: C_24  and  O_29
REMARK    9  A    between atoms: C_28  and  C_32
REMARK   10  A    between atoms: C_30  and  O_33
REMARK   11  A    between atoms: C_31  and  O_34
REMARK   12  A    between atoms: C_32  and  O_35
REMARK                            x       y       z     vdW  Elec       q    Type
REMARK                         _______ _______ _______ _____ _____    ______ ____
ROOT
ATOM      1  O   UNL     1      11.286  13.203  43.648  0.00  0.00    +0.000 OA
ATOM      2  C   UNL     1      10.976  14.243  43.102  0.00  0.00    +0.000 C 
ATOM      3  C   UNL     1      11.926  15.423  43.171  0.00  0.00    +0.000 A 
ATOM      4  C   UNL     1       9.678  14.365  42.323  0.00  0.00    +0.000 A 
ATOM      5  C   UNL     1      13.076  15.406  43.991  0.00  0.00    +0.000 A 
ATOM      6  C   UNL     1      11.700  16.548  42.368  0.00  0.00    +0.000 A 
ATOM      7  C   UNL     1       9.551  15.466  41.475  0.00  0.00    +0.000 A 
ATOM      8  C   UNL     1       8.612  13.420  42.390  0.00  0.00    +0.000 A 
ATOM      9  C   UNL     1      13.946  16.508  44.067  0.00  0.00    +0.000 A 
ATOM     10  C   UNL     1      10.564  16.557  41.397  0.00  0.00    +0.000 C 
ATOM     11  C   UNL     1      12.530  17.674  42.500  0.00  0.00    +0.000 A 
ATOM     12  C   UNL     1       8.424  15.614  40.689  0.00  0.00    +0.000 A 
ATOM     13  C   UNL     1       7.485  13.532  41.515  0.00  0.00    +0.000 A 
ATOM     14  C   UNL     1       8.592  12.350  43.494  0.00  0.00    +0.000 C 
ATOM     15  C   UNL     1      13.561  17.688  43.428  0.00  0.00    +0.000 A 
ATOM     16  O   UNL     1      10.416  17.465  40.598  0.00  0.00    +0.000 OA
ATOM     17  C   UNL     1       7.405  14.693  40.715  0.00  0.00    +0.000 A 
ENDROOT
BRANCH   9  18
ATOM     18  C   UNL     1      15.354  16.258  44.651  0.00  0.00    +0.000 C 
ATOM     19  O   UNL     1      15.859  15.052  44.008  0.00  0.00    +0.000 OA
ATOM     20  C   UNL     1      16.503  17.305  44.572  0.00  0.00    +0.000 C 
ATOM     21  C   UNL     1      16.141  15.184  42.587  0.00  0.00    +0.000 C 
ATOM     22  C   UNL     1      17.148  17.464  43.158  0.00  0.00    +0.000 C 
ATOM     23  C   UNL     1      17.349  16.132  42.402  0.00  0.00    +0.000 C 
BRANCH  20  24
ATOM     24  O   UNL     1      17.513  16.828  45.472  0.00  0.00    +0.000 OA
ATOM     25  H   UNL     1      17.508  17.433  46.245  0.00  0.00    +0.000 HD
ENDBRANCH  20  24
BRANCH  22  26
ATOM     26  O   UNL     1      18.398  18.142  43.273  0.00  0.00    +0.000 OA
ATOM     27  H   UNL     1      18.619  18.129  44.218  0.00  0.00    +0.000 HD
ENDBRANCH  22  26
BRANCH  23  28
ATOM     28  O   UNL     1      17.460  16.468  41.016  0.00  0.00    +0.000 OA
ATOM     29  H   UNL     1      18.338  16.886  40.895  0.00  0.00    +0.000 HD
ENDBRANCH  23  28
BRANCH  21  30
ATOM     30  C   UNL     1      16.376  13.779  41.992  0.00  0.00    +0.000 C 
BRANCH  30  31
ATOM     31  O   UNL     1      16.647  13.857  40.593  0.00  0.00    +0.000 OA
ATOM     32  H   UNL     1      16.365  14.745  40.304  0.00  0.00    +0.000 HD
ENDBRANCH  30  31
ENDBRANCH  21  30
ENDBRANCH   9  18
BRANCH  13  33
ATOM     33  C   UNL     1       6.410  12.442  41.389  0.00  0.00    +0.000 C 
ATOM     34  O   UNL     1       5.450  12.425  42.132  0.00  0.00    +0.000 OA
ATOM     35  O   UNL     1       6.567  11.529  40.604  0.00  0.00    +0.000 OA
ENDBRANCH  13  33
BRANCH  11  36
ATOM     36  O   UNL     1      12.397  18.785  41.708  0.00  0.00    +0.000 OA
ATOM     37  H   UNL     1      12.302  18.480  40.774  0.00  0.00    +0.000 HD
ENDBRANCH  11  36
BRANCH   5  38
ATOM     38  O   UNL     1      13.372  14.316  44.767  0.00  0.00    +0.000 OA
ATOM     39  H   UNL     1      13.446  14.609  45.702  0.00  0.00    +0.000 HD
ENDBRANCH   5  38
BRANCH  15  40
ATOM     40  O   UNL     1      14.157  18.889  43.646  0.00  0.00    +0.000 OA
ATOM     41  H   UNL     1      14.768  18.762  44.401  0.00  0.00    +0.000 HD
ENDBRANCH  15  40
BRANCH  17  42
ATOM     42  O   UNL     1       6.364  15.040  39.911  0.00  0.00    +0.000 OA
ATOM     43  H   UNL     1       6.058  14.227  39.490  0.00  0.00    +0.000 HD
ENDBRANCH  17  42
TORSDOF 11
ENDMDL
MODEL 10
REMARK VINA RESULT:    -5.594      1.746      2.622
REMARK INTER + INTRA:          -8.742
REMARK INTER:                  -7.930
REMARK INTRA:                  -0.811
REMARK UNBOUND:                -0.858
REMARK  Name = opt02.pdb
REMARK  12 active torsions:
REMARK  status: ('A' for Active; 'I' for Inactive)
REMARK    1  A    between atoms: C_5  and  O_9
REMARK    2  A    between atoms: C_8  and  C_15
REMARK    3  A    between atoms: C_10  and  C_17
REMARK    4  A    between atoms: C_12  and  O_19
REMARK    5  A    between atoms: C_14  and  C_21
REMARK    6  A    between atoms: C_16  and  O_22
REMARK    7  A    between atoms: C_20  and  O_25
REMARK    8  A    between atoms: C_24  and  O_29
REMARK    9  A    between atoms: C_28  and  C_32
REMARK   10  A    between atoms: C_30  and  O_33
REMARK   11  A    between atoms: C_31  and  O_34
REMARK   12  A    between atoms: C_32  and  O_35
REMARK                            x       y       z     vdW  Elec       q    Type
REMARK                         _______ _______ _______ _____ _____    ______ ____
ROOT
ATOM      1  O   UNL     1      14.131  13.421  43.471  0.00  0.00    +0.000 OA
ATOM      2  C   UNL     1      13.599  14.427  43.896  0.00  0.00    +0.000 C 
ATOM      3  C   UNL     1      14.461  15.510  44.517  0.00  0.00    +0.000 A 
ATOM      4  C   UNL     1      12.098  14.631  43.781  0.00  0.00    +0.000 A 
ATOM      5  C   UNL     1      15.837  15.312  44.770  0.00  0.00    +0.000 A 
ATOM      6  C   UNL     1      13.906  16.762  44.806  0.00  0.00    +0.000 A 
ATOM      7  C   UNL     1      11.619  15.924  43.999  0.00  0.00    +0.000 A 
ATOM      8  C   UNL     1      11.173  13.600  43.445  0.00  0.00    +0.000 A 
ATOM      9  C   UNL     1      16.631  16.311  45.361  0.00  0.00    +0.000 A 
ATOM     10  C   UNL     1      12.486  17.053  44.442  0.00  0.00    +0.000 C 
ATOM     11  C   UNL     1      14.683  17.731  45.462  0.00  0.00    +0.000 A 
ATOM     12  C   UNL     1      10.272  16.201  43.854  0.00  0.00    +0.000 A 
ATOM     13  C   UNL     1       9.794  13.908  43.215  0.00  0.00    +0.000 A 
ATOM     14  C   UNL     1      11.613  12.127  43.459  0.00  0.00    +0.000 C 
ATOM     15  C   UNL     1      15.989  17.454  45.839  0.00  0.00    +0.000 A 
ATOM     16  O   UNL     1      12.013  18.168  44.564  0.00  0.00    +0.000 OA
ATOM     17  C   UNL     1       9.374  15.226  43.494  0.00  0.00    +0.000 A 
ENDROOT
BRANCH   9  18
ATOM     18  C   UNL     1      18.162  16.167  45.227  0.00  0.00    +0.000 C 
ATOM     19  O   UNL     1      18.419  15.741  43.857  0.00  0.00    +0.000 OA
ATOM     20  C   UNL     1      19.151  17.336  45.509  0.00  0.00    +0.000 C 
ATOM     21  C   UNL     1      18.119  16.733  42.837  0.00  0.00    +0.000 C 
ATOM     22  C   UNL     1      19.186  18.444  44.409  0.00  0.00    +0.000 C 
ATOM     23  C   UNL     1      19.124  17.901  42.964  0.00  0.00    +0.000 C 
BRANCH  20  24
ATOM     24  O   UNL     1      20.449  16.727  45.573  0.00  0.00    +0.000 OA
ATOM     25  H   UNL     1      20.419  16.080  46.309  0.00  0.00    +0.000 HD
ENDBRANCH  20  24
BRANCH  22  26
ATOM     26  O   UNL     1      20.357  19.243  44.570  0.00  0.00    +0.000 OA
ATOM     27  H   UNL     1      21.067  18.627  44.812  0.00  0.00    +0.000 HD
ENDBRANCH  22  26
BRANCH  23  28
ATOM     28  O   UNL     1      18.672  18.985  42.146  0.00  0.00    +0.000 OA
ATOM     29  H   UNL     1      18.186  19.601  42.734  0.00  0.00    +0.000 HD
ENDBRANCH  23  28
BRANCH  21  30
ATOM     30  C   UNL     1      18.153  16.051  41.453  0.00  0.00    +0.000 C 
BRANCH  30  31
ATOM     31  O   UNL     1      17.541  14.763  41.503  0.00  0.00    +0.000 OA
ATOM     32  H   UNL     1      18.075  14.225  42.118  0.00  0.00    +0.000 HD
ENDBRANCH  30  31
ENDBRANCH  21  30
ENDBRANCH   9  18
BRANCH  13  33
ATOM     33  C   UNL     1       8.792  12.889  42.649  0.00  0.00    +0.000 C 
ATOM     34  O   UNL     1       8.881  12.498  41.504  0.00  0.00    +0.000 OA
ATOM     35  O   UNL     1       7.842  12.542  43.321  0.00  0.00    +0.000 OA
ENDBRANCH  13  33
BRANCH  11  36
ATOM     36  O   UNL     1      14.220  18.994  45.726  0.00  0.00    +0.000 OA
ATOM     37  H   UNL     1      14.129  19.084  46.705  0.00  0.00    +0.000 HD
ENDBRANCH  11  36
BRANCH   5  38
ATOM     38  O   UNL     1      16.444  14.121  44.468  0.00  0.00    +0.000 OA
ATOM     39  H   UNL     1      16.265  13.908  43.525  0.00  0.00    +0.000 HD
ENDBRANCH   5  38
BRANCH  15  40
ATOM     40  O   UNL     1      16.580  18.356  46.665  0.00  0.00    +0.000 OA
ATOM     41  H   UNL     1      16.026  19.164  46.637  0.00  0.00    +0.000 HD
ENDBRANCH  15  40
BRANCH  17  42
ATOM     42  O   UNL     1       8.094  15.683  43.452  0.00  0.00    +0.000 OA
ATOM     43  H   UNL     1       7.842  15.714  42.521  0.00  0.00    +0.000 HD
ENDBRANCH  17  42
TORSDOF 11
ENDMDL
MODEL 11
REMARK VINA RESULT:    -5.506      1.492      3.308
REMARK INTER + INTRA:          -8.617
REMARK INTER:                  -8.653
REMARK INTRA:                   0.036
REMARK UNBOUND:                -0.858
REMARK  Name = opt02.pdb
REMARK  12 active torsions:
REMARK  status: ('A' for Active; 'I' for Inactive)
REMARK    1  A    between atoms: C_5  and  O_9
REMARK    2  A    between atoms: C_8  and  C_15
REMARK    3  A    between atoms: C_10  and  C_17
REMARK    4  A    between atoms: C_12  and  O_19
REMARK    5  A    between atoms: C_14  and  C_21
REMARK    6  A    between atoms: C_16  and  O_22
REMARK    7  A    between atoms: C_20  and  O_25
REMARK    8  A    between atoms: C_24  and  O_29
REMARK    9  A    between atoms: C_28  and  C_32
REMARK   10  A    between atoms: C_30  and  O_33
REMARK   11  A    between atoms: C_31  and  O_34
REMARK   12  A    between atoms: C_32  and  O_35
REMARK                            x       y       z     vdW  Elec       q    Type
REMARK                         _______ _______ _______ _____ _____    ______ ____
ROOT
ATOM      1  O   UNL     1      11.300  17.258  44.355  0.00  0.00    +0.000 OA
ATOM      2  C   UNL     1      11.142  16.095  44.041  0.00  0.00    +0.000 C 
ATOM      3  C   UNL     1      12.320  15.143  44.122  0.00  0.00    +0.000 A 
ATOM      4  C   UNL     1       9.781  15.576  43.611  0.00  0.00    +0.000 A 
ATOM      5  C   UNL     1      13.630  15.602  44.384  0.00  0.00    +0.000 A 
ATOM      6  C   UNL     1      12.114  13.765  43.986  0.00  0.00    +0.000 A 
ATOM      7  C   UNL     1       9.616  14.189  43.578  0.00  0.00    +0.000 A 
ATOM      8  C   UNL     1       8.676  16.410  43.269  0.00  0.00    +0.000 A 
ATOM      9  C   UNL     1      14.724  14.720  44.441  0.00  0.00    +0.000 A 
ATOM     10  C   UNL     1      10.728  13.228  43.829  0.00  0.00    +0.000 C 
ATOM     11  C   UNL     1      13.217  12.896  43.971  0.00  0.00    +0.000 A 
ATOM     12  C   UNL     1       8.389  13.642  43.254  0.00  0.00    +0.000 A 
ATOM     13  C   UNL     1       7.387  15.841  43.016  0.00  0.00    +0.000 A 
ATOM     14  C   UNL     1       8.884  17.915  43.034  0.00  0.00    +0.000 C 
ATOM     15  C   UNL     1      14.509  13.391  44.075  0.00  0.00    +0.000 A 
ATOM     16  O   UNL     1      10.504  12.032  43.835  0.00  0.00    +0.000 OA
ATOM     17  C   UNL     1       7.305  14.433  42.959  0.00  0.00    +0.000 A 
ENDROOT
BRANCH   9  18
ATOM     18  C   UNL     1      16.012  15.236  45.119  0.00  0.00    +0.000 C 
ATOM     19  O   UNL     1      17.127  14.715  44.338  0.00  0.00    +0.000 OA
ATOM     20  C   UNL     1      16.307  16.748  45.341  0.00  0.00    +0.000 C 
ATOM     21  C   UNL     1      17.250  15.267  42.998  0.00  0.00    +0.000 C 
ATOM     22  C   UNL     1      16.705  17.533  44.050  0.00  0.00    +0.000 C 
ATOM     23  C   UNL     1      17.649  16.758  43.105  0.00  0.00    +0.000 C 
BRANCH  20  24
ATOM     24  O   UNL     1      17.417  16.789  46.249  0.00  0.00    +0.000 OA
ATOM     25  H   UNL     1      18.222  16.905  45.702  0.00  0.00    +0.000 HD
ENDBRANCH  20  24
BRANCH  22  26
ATOM     26  O   UNL     1      17.304  18.777  44.410  0.00  0.00    +0.000 OA
ATOM     27  H   UNL     1      16.601  19.442  44.329  0.00  0.00    +0.000 HD
ENDBRANCH  22  26
BRANCH  23  28
ATOM     28  O   UNL     1      17.514  17.362  41.815  0.00  0.00    +0.000 OA
ATOM     29  H   UNL     1      18.371  17.242  41.354  0.00  0.00    +0.000 HD
ENDBRANCH  23  28
BRANCH  21  30
ATOM     30  C   UNL     1      18.268  14.423  42.202  0.00  0.00    +0.000 C 
BRANCH  30  31
ATOM     31  O   UNL     1      18.032  14.530  40.798  0.00  0.00    +0.000 OA
ATOM     32  H   UNL     1      18.570  13.836  40.372  0.00  0.00    +0.000 HD
ENDBRANCH  30  31
ENDBRANCH  21  30
ENDBRANCH   9  18
BRANCH  13  33
ATOM     33  C   UNL     1       6.117  16.688  42.849  0.00  0.00    +0.000 C 
ATOM     34  O   UNL     1       5.614  17.251  43.800  0.00  0.00    +0.000 OA
ATOM     35  O   UNL     1       5.551  16.721  41.776  0.00  0.00    +0.000 OA
ENDBRANCH  13  33
BRANCH  11  36
ATOM     36  O   UNL     1      13.082  11.534  43.896  0.00  0.00    +0.000 OA
ATOM     37  H   UNL     1      13.441  11.243  43.023  0.00  0.00    +0.000 HD
ENDBRANCH  11  36
BRANCH   5  38
ATOM     38  O   UNL     1      13.886  16.936  44.568  0.00  0.00    +0.000 OA
ATOM     39  H   UNL     1      14.344  17.050  45.430  0.00  0.00    +0.000 HD
ENDBRANCH   5  38
BRANCH  15  40
ATOM     40  O   UNL     1      15.512  12.510  43.820  0.00  0.00    +0.000 OA
ATOM     41  H   UNL     1      15.384  12.202  42.899  0.00  0.00    +0.000 HD
ENDBRANCH  15  40
BRANCH  17  42
ATOM     42  O   UNL     1       6.206  13.709  42.617  0.00  0.00    +0.000 OA
ATOM     43  H   UNL     1       6.377  12.801  42.895  0.00  0.00    +0.000 HD
ENDBRANCH  17  42
TORSDOF 11
ENDMDL
MODEL 12
REMARK VINA RESULT:    -5.260      1.853      8.950
REMARK INTER + INTRA:          -8.271
REMARK INTER:                  -8.545
REMARK INTRA:                   0.274
REMARK UNBOUND:                -0.858
REMARK  Name = opt02.pdb
REMARK  12 active torsions:
REMARK  status: ('A' for Active; 'I' for Inactive)
REMARK    1  A    between atoms: C_5  and  O_9
REMARK    2  A    between atoms: C_8  and  C_15
REMARK    3  A    between atoms: C_10  and  C_17
REMARK    4  A    between atoms: C_12  and  O_19
REMARK    5  A    between atoms: C_14  and  C_21
REMARK    6  A    between atoms: C_16  and  O_22
REMARK    7  A    between atoms: C_20  and  O_25
REMARK    8  A    between atoms: C_24  and  O_29
REMARK    9  A    between atoms: C_28  and  C_32
REMARK   10  A    between atoms: C_30  and  O_33
REMARK   11  A    between atoms: C_31  and  O_34
REMARK   12  A    between atoms: C_32  and  O_35
REMARK                            x       y       z     vdW  Elec       q    Type
REMARK                         _______ _______ _______ _____ _____    ______ ____
ROOT
ATOM      1  O   UNL     1      12.074  17.375  43.712  0.00  0.00    +0.000 OA
ATOM      2  C   UNL     1      12.658  16.313  43.801  0.00  0.00    +0.000 C 
ATOM      3  C   UNL     1      11.967  15.051  43.321  0.00  0.00    +0.000 A 
ATOM      4  C   UNL     1      14.073  16.238  44.347  0.00  0.00    +0.000 A 
ATOM      5  C   UNL     1      10.608  15.047  42.934  0.00  0.00    +0.000 A 
ATOM      6  C   UNL     1      12.694  13.861  43.203  0.00  0.00    +0.000 A 
ATOM      7  C   UNL     1      14.774  15.051  44.121  0.00  0.00    +0.000 A 
ATOM      8  C   UNL     1      14.722  17.300  45.042  0.00  0.00    +0.000 A 
ATOM      9  C   UNL     1       9.966  13.873  42.505  0.00  0.00    +0.000 A 
ATOM     10  C   UNL     1      14.162  13.849  43.486  0.00  0.00    +0.000 C 
ATOM     11  C   UNL     1      12.032  12.675  42.844  0.00  0.00    +0.000 A 
ATOM     12  C   UNL     1      16.087  14.929  44.535  0.00  0.00    +0.000 A 
ATOM     13  C   UNL     1      16.105  17.200  45.394  0.00  0.00    +0.000 A 
ATOM     14  C   UNL     1      13.913  18.508  45.543  0.00  0.00    +0.000 C 
ATOM     15  C   UNL     1      10.663  12.669  42.620  0.00  0.00    +0.000 A 
ATOM     16  O   UNL     1      14.844  12.864  43.273  0.00  0.00    +0.000 OA
ATOM     17  C   UNL     1      16.737  15.957  45.173  0.00  0.00    +0.000 A 
ENDROOT
BRANCH   9  18
ATOM     18  C   UNL     1       8.638  14.035  41.733  0.00  0.00    +0.000 C 
ATOM     19  O   UNL     1       7.864  12.827  41.983  0.00  0.00    +0.000 OA
ATOM     20  C   UNL     1       7.665  15.229  41.961  0.00  0.00    +0.000 C 
ATOM     21  C   UNL     1       7.399  12.666  43.351  0.00  0.00    +0.000 C 
ATOM     22  C   UNL     1       6.851  15.163  43.293  0.00  0.00    +0.000 C 
ATOM     23  C   UNL     1       6.338  13.751  43.650  0.00  0.00    +0.000 C 
BRANCH  20  24
ATOM     24  O   UNL     1       6.738  15.177  40.868  0.00  0.00    +0.000 OA
ATOM     25  H   UNL     1       7.275  15.159  40.047  0.00  0.00    +0.000 HD
ENDBRANCH  20  24
BRANCH  22  26
ATOM     26  O   UNL     1       5.751  16.070  43.229  0.00  0.00    +0.000 OA
ATOM     27  H   UNL     1       5.885  16.591  42.420  0.00  0.00    +0.000 HD
ENDBRANCH  22  26
BRANCH  23  28
ATOM     28  O   UNL     1       6.076  13.761  45.057  0.00  0.00    +0.000 OA
ATOM     29  H   UNL     1       5.127  13.983  45.167  0.00  0.00    +0.000 HD
ENDBRANCH  23  28
BRANCH  21  30
ATOM     30  C   UNL     1       6.865  11.229  43.532  0.00  0.00    +0.000 C 
BRANCH  30  31
ATOM     31  O   UNL     1       5.450  11.230  43.721  0.00  0.00    +0.000 OA
ATOM     32  H   UNL     1       5.297  11.408  44.669  0.00  0.00    +0.000 HD
ENDBRANCH  30  31
ENDBRANCH  21  30
ENDBRANCH   9  18
BRANCH  13  33
ATOM     33  C   UNL     1      16.915  18.381  45.952  0.00  0.00    +0.000 C 
ATOM     34  O   UNL     1      17.702  18.983  45.251  0.00  0.00    +0.000 OA
ATOM     35  O   UNL     1      16.841  18.658  47.132  0.00  0.00    +0.000 OA
ENDBRANCH  13  33
BRANCH  11  36
ATOM     36  O   UNL     1      12.692  11.488  42.660  0.00  0.00    +0.000 OA
ATOM     37  H   UNL     1      13.062  11.209  43.532  0.00  0.00    +0.000 HD
ENDBRANCH  11  36
BRANCH   5  38
ATOM     38  O   UNL     1       9.858  16.193  42.987  0.00  0.00    +0.000 OA
ATOM     39  H   UNL     1      10.455  16.964  42.863  0.00  0.00    +0.000 HD
ENDBRANCH   5  38
BRANCH  15  40
ATOM     40  O   UNL     1      10.077  11.448  42.508  0.00  0.00    +0.000 OA
ATOM     41  H   UNL     1       9.144  11.563  42.782  0.00  0.00    +0.000 HD
ENDBRANCH  15  40
BRANCH  17  42
ATOM     42  O   UNL     1      18.003  15.626  45.545  0.00  0.00    +0.000 OA
ATOM     43  H   UNL     1      18.135  14.706  45.285  0.00  0.00    +0.000 HD
ENDBRANCH  17  42
TORSDOF 11
ENDMDL
MODEL 13
REMARK VINA RESULT:    -5.210      1.654      8.701
REMARK INTER + INTRA:          -8.199
REMARK INTER:                  -7.557
REMARK INTRA:                  -0.643
REMARK UNBOUND:                -0.858
REMARK  Name = opt02.pdb
REMARK  12 active torsions:
REMARK  status: ('A' for Active; 'I' for Inactive)
REMARK    1  A    between atoms: C_5  and  O_9
REMARK    2  A    between atoms: C_8  and  C_15
REMARK    3  A    between atoms: C_10  and  C_17
REMARK    4  A    between atoms: C_12  and  O_19
REMARK    5  A    between atoms: C_14  and  C_21
REMARK    6  A    between atoms: C_16  and  O_22
REMARK    7  A    between atoms: C_20  and  O_25
REMARK    8  A    between atoms: C_24  and  O_29
REMARK    9  A    between atoms: C_28  and  C_32
REMARK   10  A    between atoms: C_30  and  O_33
REMARK   11  A    between atoms: C_31  and  O_34
REMARK   12  A    between atoms: C_32  and  O_35
REMARK                            x       y       z     vdW  Elec       q    Type
REMARK                         _______ _______ _______ _____ _____    ______ ____
ROOT
ATOM      1  O   UNL     1      12.211  16.917  44.391  0.00  0.00    +0.000 OA
ATOM      2  C   UNL     1      12.600  15.829  44.014  0.00  0.00    +0.000 C 
ATOM      3  C   UNL     1      11.580  14.780  43.617  0.00  0.00    +0.000 A 
ATOM      4  C   UNL     1      14.083  15.522  43.897  0.00  0.00    +0.000 A 
ATOM      5  C   UNL     1      10.196  14.967  43.834  0.00  0.00    +0.000 A 
ATOM      6  C   UNL     1      11.997  13.611  42.970  0.00  0.00    +0.000 A 
ATOM      7  C   UNL     1      14.436  14.386  43.166  0.00  0.00    +0.000 A 
ATOM      8  C   UNL     1      15.115  16.328  44.461  0.00  0.00    +0.000 A 
ATOM      9  C   UNL     1       9.253  13.986  43.481  0.00  0.00    +0.000 A 
ATOM     10  C   UNL     1      13.437  13.428  42.612  0.00  0.00    +0.000 C 
ATOM     11  C   UNL     1      11.062  12.602  42.685  0.00  0.00    +0.000 A 
ATOM     12  C   UNL     1      15.767  14.073  42.965  0.00  0.00    +0.000 A 
ATOM     13  C   UNL     1      16.490  16.047  44.181  0.00  0.00    +0.000 A 
ATOM     14  C   UNL     1      14.773  17.422  45.485  0.00  0.00    +0.000 C 
ATOM     15  C   UNL     1       9.732  12.747  43.051  0.00  0.00    +0.000 A 
ATOM     16  O   UNL     1      13.811  12.484  41.940  0.00  0.00    +0.000 OA
ATOM     17  C   UNL     1      16.773  14.861  43.471  0.00  0.00    +0.000 A 
ENDROOT
BRANCH   9  18
ATOM     18  C   UNL     1       7.777  14.429  43.378  0.00  0.00    +0.000 C 
ATOM     19  O   UNL     1       7.791  15.798  42.880  0.00  0.00    +0.000 OA
ATOM     20  C   UNL     1       6.721  13.667  42.525  0.00  0.00    +0.000 C 
ATOM     21  C   UNL     1       8.247  15.949  41.507  0.00  0.00    +0.000 C 
ATOM     22  C   UNL     1       6.860  13.866  40.982  0.00  0.00    +0.000 C 
ATOM     23  C   UNL     1       7.204  15.311  40.560  0.00  0.00    +0.000 C 
BRANCH  20  24
ATOM     24  O   UNL     1       5.452  14.197  42.932  0.00  0.00    +0.000 OA
ATOM     25  H   UNL     1       5.245  14.933  42.316  0.00  0.00    +0.000 HD
ENDBRANCH  20  24
BRANCH  22  26
ATOM     26  O   UNL     1       5.658  13.452  40.334  0.00  0.00    +0.000 OA
ATOM     27  H   UNL     1       4.933  13.767  40.897  0.00  0.00    +0.000 HD
ENDBRANCH  22  26
BRANCH  23  28
ATOM     28  O   UNL     1       7.769  15.224  39.248  0.00  0.00    +0.000 OA
ATOM     29  H   UNL     1       7.372  14.437  38.820  0.00  0.00    +0.000 HD
ENDBRANCH  23  28
BRANCH  21  30
ATOM     30  C   UNL     1       8.489  17.446  41.223  0.00  0.00    +0.000 C 
BRANCH  30  31
ATOM     31  O   UNL     1       9.234  18.052  42.279  0.00  0.00    +0.000 OA
ATOM     32  H   UNL     1       9.978  17.451  42.476  0.00  0.00    +0.000 HD
ENDBRANCH  30  31
ENDBRANCH  21  30
ENDBRANCH   9  18
BRANCH  13  33
ATOM     33  C   UNL     1      17.635  16.991  44.581  0.00  0.00    +0.000 C 
ATOM     34  O   UNL     1      17.806  18.044  44.002  0.00  0.00    +0.000 OA
ATOM     35  O   UNL     1      18.439  16.640  45.420  0.00  0.00    +0.000 OA
ENDBRANCH  13  33
BRANCH  11  36
ATOM     36  O   UNL     1      11.394  11.459  42.007  0.00  0.00    +0.000 OA
ATOM     37  H   UNL     1      10.602  11.171  41.492  0.00  0.00    +0.000 HD
ENDBRANCH  11  36
BRANCH   5  38
ATOM     38  O   UNL     1       9.724  16.111  44.425  0.00  0.00    +0.000 OA
ATOM     39  H   UNL     1      10.439  16.785  44.415  0.00  0.00    +0.000 HD
ENDBRANCH   5  38
BRANCH  15  40
ATOM     40  O   UNL     1       8.955  11.638  42.946  0.00  0.00    +0.000 OA
ATOM     41  H   UNL     1       8.917  11.414  41.993  0.00  0.00    +0.000 HD
ENDBRANCH  15  40
BRANCH  17  42
ATOM     42  O   UNL     1      18.011  14.361  43.210  0.00  0.00    +0.000 OA
ATOM     43  H   UNL     1      18.634  15.087  43.339  0.00  0.00    +0.000 HD
ENDBRANCH  17  42
TORSDOF 11
ENDMDL
MODEL 14
REMARK VINA RESULT:    -5.192      2.374      8.648
REMARK INTER + INTRA:          -8.175
REMARK INTER:                  -7.816
REMARK INTRA:                  -0.358
REMARK UNBOUND:                -0.858
REMARK  Name = opt02.pdb
REMARK  12 active torsions:
REMARK  status: ('A' for Active; 'I' for Inactive)
REMARK    1  A    between atoms: C_5  and  O_9
REMARK    2  A    between atoms: C_8  and  C_15
REMARK    3  A    between atoms: C_10  and  C_17
REMARK    4  A    between atoms: C_12  and  O_19
REMARK    5  A    between atoms: C_14  and  C_21
REMARK    6  A    between atoms: C_16  and  O_22
REMARK    7  A    between atoms: C_20  and  O_25
REMARK    8  A    between atoms: C_24  and  O_29
REMARK    9  A    between atoms: C_28  and  C_32
REMARK   10  A    between atoms: C_30  and  O_33
REMARK   11  A    between atoms: C_31  and  O_34
REMARK   12  A    between atoms: C_32  and  O_35
REMARK                            x       y       z     vdW  Elec       q    Type
REMARK                         _______ _______ _______ _____ _____    ______ ____
ROOT
ATOM      1  O   UNL     1      12.797  18.332  44.014  0.00  0.00    +0.000 OA
ATOM      2  C   UNL     1      12.792  17.126  44.164  0.00  0.00    +0.000 C 
ATOM      3  C   UNL     1      11.526  16.351  43.854  0.00  0.00    +0.000 A 
ATOM      4  C   UNL     1      14.038  16.386  44.618  0.00  0.00    +0.000 A 
ATOM      5  C   UNL     1      10.307  17.003  43.562  0.00  0.00    +0.000 A 
ATOM      6  C   UNL     1      11.560  14.952  43.801  0.00  0.00    +0.000 A 
ATOM      7  C   UNL     1      14.040  14.998  44.459  0.00  0.00    +0.000 A 
ATOM      8  C   UNL     1      15.193  17.019  45.162  0.00  0.00    +0.000 A 
ATOM      9  C   UNL     1       9.130  16.282  43.291  0.00  0.00    +0.000 A 
ATOM     10  C   UNL     1      12.855  14.229  43.984  0.00  0.00    +0.000 C 
ATOM     11  C   UNL     1      10.368  14.235  43.603  0.00  0.00    +0.000 A 
ATOM     12  C   UNL     1      15.161  14.261  44.793  0.00  0.00    +0.000 A 
ATOM     13  C   UNL     1      16.379  16.263  45.428  0.00  0.00    +0.000 A 
ATOM     14  C   UNL     1      15.137  18.492  45.599  0.00  0.00    +0.000 C 
ATOM     15  C   UNL     1       9.157  14.899  43.473  0.00  0.00    +0.000 A 
ATOM     16  O   UNL     1      12.941  13.025  43.820  0.00  0.00    +0.000 OA
ATOM     17  C   UNL     1      16.294  14.862  45.284  0.00  0.00    +0.000 A 
ENDROOT
BRANCH   9  18
ATOM     18  C   UNL     1       7.979  17.044  42.599  0.00  0.00    +0.000 C 
ATOM     19  O   UNL     1       8.602  18.039  41.736  0.00  0.00    +0.000 OA
ATOM     20  C   UNL     1       6.895  16.337  41.733  0.00  0.00    +0.000 C 
ATOM     21  C   UNL     1       9.332  17.498  40.600  0.00  0.00    +0.000 C 
ATOM     22  C   UNL     1       7.387  15.860  40.329  0.00  0.00    +0.000 C 
ATOM     23  C   UNL     1       8.325  16.859  39.616  0.00  0.00    +0.000 C 
BRANCH  20  24
ATOM     24  O   UNL     1       5.868  17.319  41.536  0.00  0.00    +0.000 OA
ATOM     25  H   UNL     1       5.346  17.349  42.367  0.00  0.00    +0.000 HD
ENDBRANCH  20  24
BRANCH  22  26
ATOM     26  O   UNL     1       6.264  15.580  39.496  0.00  0.00    +0.000 OA
ATOM     27  H   UNL     1       6.448  14.719  39.085  0.00  0.00    +0.000 HD
ENDBRANCH  22  26
BRANCH  23  28
ATOM     28  O   UNL     1       9.052  16.104  38.642  0.00  0.00    +0.000 OA
ATOM     29  H   UNL     1       8.390  15.729  38.022  0.00  0.00    +0.000 HD
ENDBRANCH  23  28
BRANCH  21  30
ATOM     30  C   UNL     1      10.170  18.626  39.962  0.00  0.00    +0.000 C 
BRANCH  30  31
ATOM     31  O   UNL     1      10.965  19.289  40.945  0.00  0.00    +0.000 OA
ATOM     32  H   UNL     1      11.771  19.599  40.489  0.00  0.00    +0.000 HD
ENDBRANCH  30  31
ENDBRANCH  21  30
ENDBRANCH   9  18
BRANCH  13  33
ATOM     33  C   UNL     1      17.717  16.913  45.815  0.00  0.00    +0.000 C 
ATOM     34  O   UNL     1      18.692  16.804  45.100  0.00  0.00    +0.000 OA
ATOM     35  O   UNL     1      17.831  17.460  46.893  0.00  0.00    +0.000 OA
ENDBRANCH  13  33
BRANCH  11  36
ATOM     36  O   UNL     1      10.340  12.870  43.488  0.00  0.00    +0.000 OA
ATOM     37  H   UNL     1      10.968  12.498  44.152  0.00  0.00    +0.000 HD
ENDBRANCH  11  36
BRANCH   5  38
ATOM     38  O   UNL     1      10.223  18.371  43.556  0.00  0.00    +0.000 OA
ATOM     39  H   UNL     1       9.894  18.667  44.434  0.00  0.00    +0.000 HD
ENDBRANCH   5  38
BRANCH  15  40
ATOM     40  O   UNL     1       8.041  14.126  43.518  0.00  0.00    +0.000 OA
ATOM     41  H   UNL     1       7.838  13.877  42.592  0.00  0.00    +0.000 HD
ENDBRANCH  15  40
BRANCH  17  42
ATOM     42  O   UNL     1      17.268  13.965  45.599  0.00  0.00    +0.000 OA
ATOM     43  H   UNL     1      16.996  13.543  46.424  0.00  0.00    +0.000 HD
ENDBRANCH  17  42
TORSDOF 11
ENDMDL
MODEL 15
REMARK VINA RESULT:    -5.137      1.975      8.731
REMARK INTER + INTRA:          -8.097
REMARK INTER:                  -7.298
REMARK INTRA:                  -0.799
REMARK UNBOUND:                -0.858
REMARK  Name = opt02.pdb
REMARK  12 active torsions:
REMARK  status: ('A' for Active; 'I' for Inactive)
REMARK    1  A    between atoms: C_5  and  O_9
REMARK    2  A    between atoms: C_8  and  C_15
REMARK    3  A    between atoms: C_10  and  C_17
REMARK    4  A    between atoms: C_12  and  O_19
REMARK    5  A    between atoms: C_14  and  C_21
REMARK    6  A    between atoms: C_16  and  O_22
REMARK    7  A    between atoms: C_20  and  O_25
REMARK    8  A    between atoms: C_24  and  O_29
REMARK    9  A    between atoms: C_28  and  C_32
REMARK   10  A    between atoms: C_30  and  O_33
REMARK   11  A    between atoms: C_31  and  O_34
REMARK   12  A    between atoms: C_32  and  O_35
REMARK                            x       y       z     vdW  Elec       q    Type
REMARK                         _______ _______ _______ _____ _____    ______ ____
ROOT
ATOM      1  O   UNL     1      14.244  17.590  44.685  0.00  0.00    +0.000 OA
ATOM      2  C   UNL     1      14.513  16.502  44.215  0.00  0.00    +0.000 C 
ATOM      3  C   UNL     1      13.385  15.607  43.738  0.00  0.00    +0.000 A 
ATOM      4  C   UNL     1      15.954  16.047  44.062  0.00  0.00    +0.000 A 
ATOM      5  C   UNL     1      12.030  15.924  43.981  0.00  0.00    +0.000 A 
ATOM      6  C   UNL     1      13.675  14.458  42.993  0.00  0.00    +0.000 A 
ATOM      7  C   UNL     1      16.183  14.945  43.235  0.00  0.00    +0.000 A 
ATOM      8  C   UNL     1      17.067  16.685  44.684  0.00  0.00    +0.000 A 
ATOM      9  C   UNL     1      10.986  15.084  43.554  0.00  0.00    +0.000 A 
ATOM     10  C   UNL     1      15.087  14.151  42.610  0.00  0.00    +0.000 C 
ATOM     11  C   UNL     1      12.636  13.584  42.631  0.00  0.00    +0.000 A 
ATOM     12  C   UNL     1      17.473  14.507  43.000  0.00  0.00    +0.000 A 
ATOM     13  C   UNL     1      18.404  16.282  44.371  0.00  0.00    +0.000 A 
ATOM     14  C   UNL     1      16.844  17.720  45.798  0.00  0.00    +0.000 C 
ATOM     15  C   UNL     1      11.329  13.841  43.017  0.00  0.00    +0.000 A 
ATOM     16  O   UNL     1      15.357  13.232  41.858  0.00  0.00    +0.000 OA
ATOM     17  C   UNL     1      18.557  15.136  43.562  0.00  0.00    +0.000 A 
ENDROOT
BRANCH   9  18
ATOM     18  C   UNL     1       9.568  15.691  43.499  0.00  0.00    +0.000 C 
ATOM     19  O   UNL     1       9.718  17.045  42.981  0.00  0.00    +0.000 OA
ATOM     20  C   UNL     1       8.400  15.047  42.696  0.00  0.00    +0.000 C 
ATOM     21  C   UNL     1      10.136  17.130  41.591  0.00  0.00    +0.000 C 
ATOM     22  C   UNL     1       8.502  15.213  41.146  0.00  0.00    +0.000 C 
ATOM     23  C   UNL     1       8.992  16.606  40.692  0.00  0.00    +0.000 C 
BRANCH  20  24
ATOM     24  O   UNL     1       7.216  15.722  43.142  0.00  0.00    +0.000 OA
ATOM     25  H   UNL     1       7.274  16.642  42.805  0.00  0.00    +0.000 HD
ENDBRANCH  20  24
BRANCH  22  26
ATOM     26  O   UNL     1       7.237  14.933  40.549  0.00  0.00    +0.000 OA
ATOM     27  H   UNL     1       7.434  14.589  39.662  0.00  0.00    +0.000 HD
ENDBRANCH  22  26
BRANCH  23  28
ATOM     28  O   UNL     1       9.493  16.442  39.362  0.00  0.00    +0.000 OA
ATOM     29  H   UNL     1      10.457  16.617  39.398  0.00  0.00    +0.000 HD
ENDBRANCH  23  28
BRANCH  21  30
ATOM     30  C   UNL     1      10.536  18.587  41.278  0.00  0.00    +0.000 C 
BRANCH  30  31
ATOM     31  O   UNL     1      11.399  19.108  42.287  0.00  0.00    +0.000 OA
ATOM     32  H   UNL     1      12.225  18.589  42.242  0.00  0.00    +0.000 HD
ENDBRANCH  30  31
ENDBRANCH  21  30
ENDBRANCH   9  18
BRANCH  13  33
ATOM     33  C   UNL     1      19.643  17.058  44.841  0.00  0.00    +0.000 C 
ATOM     34  O   UNL     1      19.880  18.171  44.416  0.00  0.00    +0.000 OA
ATOM     35  O   UNL     1      20.450  16.520  45.572  0.00  0.00    +0.000 OA
ENDBRANCH  13  33
BRANCH  11  36
ATOM     36  O   UNL     1      12.843  12.472  41.857  0.00  0.00    +0.000 OA
ATOM     37  H   UNL     1      13.785  12.482  41.560  0.00  0.00    +0.000 HD
ENDBRANCH  11  36
BRANCH   5  38
ATOM     38  O   UNL     1      11.684  17.058  44.669  0.00  0.00    +0.000 OA
ATOM     39  H   UNL     1      11.844  17.836  44.089  0.00  0.00    +0.000 HD
ENDBRANCH   5  38
BRANCH  15  40
ATOM     40  O   UNL     1      10.436  12.835  42.825  0.00  0.00    +0.000 OA
ATOM     41  H   UNL     1      10.849  12.216  42.188  0.00  0.00    +0.000 HD
ENDBRANCH  15  40
BRANCH  17  42
ATOM     42  O   UNL     1      19.734  14.528  43.251  0.00  0.00    +0.000 OA
ATOM     43  H   UNL     1      19.757  14.448  42.290  0.00  0.00    +0.000 HD
ENDBRANCH  17  42
TORSDOF 11
ENDMDL
