MODEL 1
REMARK VINA RESULT:    -6.587      0.000      0.000
REMARK INTER + INTRA:         -11.814
REMARK INTER:                  -9.283
REMARK INTRA:                  -2.532
REMARK UNBOUND:                -2.532
REMARK  Name = opt71.pdb
REMARK  9 active torsions:
REMARK  status: ('A' for Active; 'I' for Inactive)
REMARK    1  A    between atoms: C_2  and  O_3
REMARK    2  A    between atoms: C_2  and  C_4
REMARK    3  A    between atoms: O_3  and  C_5
REMARK    4  A    between atoms: C_4  and  C_7
REMARK    5  A    between atoms: C_19  and  C_27
REMARK    6  A    between atoms: N_23  and  C_29
REMARK    7  A    between atoms: C_27  and  O_31
REMARK    8  A    between atoms: O_31  and  C_32
REMARK    9  A    between atoms: N_37  and  C_40
REMARK                            x       y       z     vdW  Elec       q    Type
REMARK                         _______ _______ _______ _____ _____    ______ ____
ROOT
ATOM      1  C   UNL     1      11.714  16.673  42.948  0.00  0.00    +0.000 C 
ATOM      2  C   UNL     1      12.630  17.376  43.865  0.00  0.00    +0.000 A 
ATOM      3  C   UNL     1      11.765  17.054  41.464  0.00  0.00    +0.000 C 
ATOM      4  C   UNL     1      13.668  18.182  43.351  0.00  0.00    +0.000 A 
ATOM      5  C   UNL     1      12.453  17.347  45.263  0.00  0.00    +0.000 A 
ATOM      6  C   UNL     1      13.142  17.464  40.907  0.00  0.00    +0.000 C 
ATOM      7  C   UNL     1      14.399  19.015  44.207  0.00  0.00    +0.000 A 
ATOM      8  C   UNL     1      13.999  18.178  41.941  0.00  0.00    +0.000 C 
ATOM      9  C   UNL     1      13.204  18.160  46.106  0.00  0.00    +0.000 A 
ATOM     10  C   UNL     1      14.165  19.012  45.576  0.00  0.00    +0.000 A 
ENDROOT
BRANCH   1  11
ATOM     11  C   UNL     1      12.264  15.344  43.299  0.00  0.00    +0.000 A 
ATOM     12  C   UNL     1      12.189  14.864  44.621  0.00  0.00    +0.000 A 
ATOM     13  C   UNL     1      12.832  14.478  42.342  0.00  0.00    +0.000 A 
ATOM     14  C   UNL     1      12.638  13.589  44.960  0.00  0.00    +0.000 A 
ATOM     15  C   UNL     1      13.285  13.206  42.683  0.00  0.00    +0.000 A 
ATOM     16  C   UNL     1      13.182  12.754  43.992  0.00  0.00    +0.000 A 
ENDBRANCH   1  11
BRANCH   8  17
ATOM     17  C   UNL     1      15.401  18.201  41.456  0.00  0.00    +0.000 C 
ATOM     18  O   UNL     1      15.947  19.173  40.965  0.00  0.00    +0.000 OA
BRANCH  17  19
ATOM     19  O   UNL     1      15.960  16.965  41.443  0.00  0.00    +0.000 OA
BRANCH  19  20
ATOM     20  C   UNL     1      16.172  16.230  42.679  0.00  0.00    +0.000 C 
ATOM     21  C   UNL     1      16.553  14.758  42.355  0.00  0.00    +0.000 C 
ATOM     22  C   UNL     1      17.282  16.947  43.492  0.00  0.00    +0.000 C 
ATOM     23  C   UNL     1      17.227  14.050  43.569  0.00  0.00    +0.000 C 
ATOM     24  C   UNL     1      17.873  16.028  44.602  0.00  0.00    +0.000 C 
ATOM     25  N   UNL     1      18.423  14.790  44.018  0.00  0.00    +0.000 NA
ATOM     26  C   UNL     1      16.338  14.135  44.829  0.00  0.00    +0.000 C 
ATOM     27  C   UNL     1      16.763  15.458  45.514  0.00  0.00    +0.000 C 
ATOM     28  C   UNL     1      19.552  14.922  43.067  0.00  0.00    +0.000 C 
ENDBRANCH  19  20
ENDBRANCH  17  19
ENDBRANCH   8  17
BRANCH   1  30
ATOM     29  O   UNL     1       9.690  17.818  43.621  0.00  0.00    +0.000 OA
ATOM     30  C   UNL     1      10.229  16.819  43.174  0.00  0.00    +0.000 C 
BRANCH  30  31
ATOM     31  O   UNL     1       9.505  15.724  42.836  0.00  0.00    +0.000 OA
BRANCH  31  32
ATOM     32  C   UNL     1       8.331  15.281  43.573  0.00  0.00    +0.000 C 
ATOM     33  C   UNL     1       7.029  15.512  42.746  0.00  0.00    +0.000 C 
ATOM     34  C   UNL     1       8.571  13.778  43.888  0.00  0.00    +0.000 C 
ATOM     35  C   UNL     1       5.872  14.557  43.167  0.00  0.00    +0.000 C 
ATOM     36  C   UNL     1       7.258  13.001  44.185  0.00  0.00    +0.000 C 
ATOM     37  N   UNL     1       6.298  13.147  43.075  0.00  0.00    +0.000 NA
ATOM     38  C   UNL     1       5.555  14.682  44.673  0.00  0.00    +0.000 C 
ATOM     39  C   UNL     1       6.482  13.647  45.352  0.00  0.00    +0.000 C 
ATOM     40  C   UNL     1       6.707  12.644  41.742  0.00  0.00    +0.000 C 
ENDBRANCH  31  32
ENDBRANCH  30  31
ENDBRANCH   1  30
TORSDOF 7
ENDMDL
MODEL 2
REMARK VINA RESULT:    -6.565      2.511      8.877
REMARK INTER + INTRA:         -11.783
REMARK INTER:                 -10.333
REMARK INTRA:                  -1.450
REMARK UNBOUND:                -2.532
REMARK  Name = opt71.pdb
REMARK  9 active torsions:
REMARK  status: ('A' for Active; 'I' for Inactive)
REMARK    1  A    between atoms: C_2  and  O_3
REMARK    2  A    between atoms: C_2  and  C_4
REMARK    3  A    between atoms: O_3  and  C_5
REMARK    4  A    between atoms: C_4  and  C_7
REMARK    5  A    between atoms: C_19  and  C_27
REMARK    6  A    between atoms: N_23  and  C_29
REMARK    7  A    between atoms: C_27  and  O_31
REMARK    8  A    between atoms: O_31  and  C_32
REMARK    9  A    between atoms: N_37  and  C_40
REMARK                            x       y       z     vdW  Elec       q    Type
REMARK                         _______ _______ _______ _____ _____    ______ ____
ROOT
ATOM      1  C   UNL     1      15.412  14.639  44.727  0.00  0.00    +0.000 C 
ATOM      2  C   UNL     1      14.437  15.633  44.243  0.00  0.00    +0.000 A 
ATOM      3  C   UNL     1      14.864  13.384  45.417  0.00  0.00    +0.000 C 
ATOM      4  C   UNL     1      13.062  15.319  44.205  0.00  0.00    +0.000 A 
ATOM      5  C   UNL     1      14.820  16.944  43.895  0.00  0.00    +0.000 A 
ATOM      6  C   UNL     1      13.511  12.854  44.904  0.00  0.00    +0.000 C 
ATOM      7  C   UNL     1      12.119  16.323  43.954  0.00  0.00    +0.000 A 
ATOM      8  C   UNL     1      12.590  13.968  44.430  0.00  0.00    +0.000 C 
ATOM      9  C   UNL     1      13.874  17.927  43.620  0.00  0.00    +0.000 A 
ATOM     10  C   UNL     1      12.520  17.622  43.671  0.00  0.00    +0.000 A 
ENDROOT
BRANCH   1  11
ATOM     11  C   UNL     1      15.990  14.440  43.379  0.00  0.00    +0.000 A 
ATOM     12  C   UNL     1      17.179  15.095  43.005  0.00  0.00    +0.000 A 
ATOM     13  C   UNL     1      15.426  13.562  42.430  0.00  0.00    +0.000 A 
ATOM     14  C   UNL     1      17.777  14.871  41.766  0.00  0.00    +0.000 A 
ATOM     15  C   UNL     1      16.021  13.342  41.191  0.00  0.00    +0.000 A 
ATOM     16  C   UNL     1      17.204  13.990  40.858  0.00  0.00    +0.000 A 
ENDBRANCH   1  11
BRANCH   8  17
ATOM     17  C   UNL     1      11.496  13.366  43.628  0.00  0.00    +0.000 C 
ATOM     18  O   UNL     1      11.614  12.973  42.482  0.00  0.00    +0.000 OA
BRANCH  17  19
ATOM     19  O   UNL     1      10.291  13.471  44.243  0.00  0.00    +0.000 OA
BRANCH  19  20
ATOM     20  C   UNL     1       9.080  13.706  43.474  0.00  0.00    +0.000 C 
ATOM     21  C   UNL     1       8.047  12.581  43.767  0.00  0.00    +0.000 C 
ATOM     22  C   UNL     1       8.526  15.106  43.846  0.00  0.00    +0.000 C 
ATOM     23  C   UNL     1       6.602  12.994  43.355  0.00  0.00    +0.000 C 
ATOM     24  C   UNL     1       7.039  15.276  43.415  0.00  0.00    +0.000 C 
ATOM     25  N   UNL     1       6.193  14.239  44.036  0.00  0.00    +0.000 NA
ATOM     26  C   UNL     1       6.547  13.437  41.877  0.00  0.00    +0.000 C 
ATOM     27  C   UNL     1       6.846  14.956  41.915  0.00  0.00    +0.000 C 
ATOM     28  C   UNL     1       6.105  14.222  45.515  0.00  0.00    +0.000 C 
ENDBRANCH  19  20
ENDBRANCH  17  19
ENDBRANCH   8  17
BRANCH   1  30
ATOM     29  O   UNL     1      17.241  14.336  46.283  0.00  0.00    +0.000 OA
ATOM     30  C   UNL     1      16.405  15.067  45.780  0.00  0.00    +0.000 C 
BRANCH  30  31
ATOM     31  O   UNL     1      16.299  16.368  46.146  0.00  0.00    +0.000 OA
BRANCH  31  32
ATOM     32  C   UNL     1      17.417  17.151  46.652  0.00  0.00    +0.000 C 
ATOM     33  C   UNL     1      18.287  17.708  45.484  0.00  0.00    +0.000 C 
ATOM     34  C   UNL     1      16.786  18.283  47.510  0.00  0.00    +0.000 C 
ATOM     35  C   UNL     1      19.081  18.987  45.884  0.00  0.00    +0.000 C 
ATOM     36  C   UNL     1      17.730  19.504  47.696  0.00  0.00    +0.000 C 
ATOM     37  N   UNL     1      18.171  20.032  46.391  0.00  0.00    +0.000 NA
ATOM     38  C   UNL     1      19.975  18.736  47.118  0.00  0.00    +0.000 C 
ATOM     39  C   UNL     1      19.073  19.078  48.326  0.00  0.00    +0.000 C 
ATOM     40  C   UNL     1      17.128  20.535  45.465  0.00  0.00    +0.000 C 
ENDBRANCH  31  32
ENDBRANCH  30  31
ENDBRANCH   1  30
TORSDOF 7
ENDMDL
MODEL 3
REMARK VINA RESULT:    -6.220      3.219      8.736
REMARK INTER + INTRA:         -11.297
REMARK INTER:                 -10.220
REMARK INTRA:                  -1.078
REMARK UNBOUND:                -2.532
REMARK  Name = opt71.pdb
REMARK  9 active torsions:
REMARK  status: ('A' for Active; 'I' for Inactive)
REMARK    1  A    between atoms: C_2  and  O_3
REMARK    2  A    between atoms: C_2  and  C_4
REMARK    3  A    between atoms: O_3  and  C_5
REMARK    4  A    between atoms: C_4  and  C_7
REMARK    5  A    between atoms: C_19  and  C_27
REMARK    6  A    between atoms: N_23  and  C_29
REMARK    7  A    between atoms: C_27  and  O_31
REMARK    8  A    between atoms: O_31  and  C_32
REMARK    9  A    between atoms: N_37  and  C_40
REMARK                            x       y       z     vdW  Elec       q    Type
REMARK                         _______ _______ _______ _____ _____    ______ ____
ROOT
ATOM      1  C   UNL     1      17.595  15.769  44.310  0.00  0.00    +0.000 C 
ATOM      2  C   UNL     1      16.279  16.403  44.110  0.00  0.00    +0.000 A 
ATOM      3  C   UNL     1      17.653  14.512  45.186  0.00  0.00    +0.000 C 
ATOM      4  C   UNL     1      15.102  15.736  44.510  0.00  0.00    +0.000 A 
ATOM      5  C   UNL     1      16.151  17.713  43.606  0.00  0.00    +0.000 A 
ATOM      6  C   UNL     1      16.424  13.584  45.137  0.00  0.00    +0.000 C 
ATOM      7  C   UNL     1      13.878  16.416  44.521  0.00  0.00    +0.000 A 
ATOM      8  C   UNL     1      15.125  14.348  44.925  0.00  0.00    +0.000 C 
ATOM      9  C   UNL     1      14.925  18.370  43.597  0.00  0.00    +0.000 A 
ATOM     10  C   UNL     1      13.789  17.728  44.075  0.00  0.00    +0.000 A 
ENDROOT
BRANCH   1  11
ATOM     11  C   UNL     1      17.798  15.560  42.858  0.00  0.00    +0.000 A 
ATOM     12  C   UNL     1      18.484  16.517  42.085  0.00  0.00    +0.000 A 
ATOM     13  C   UNL     1      17.374  14.393  42.190  0.00  0.00    +0.000 A 
ATOM     14  C   UNL     1      18.745  16.310  40.732  0.00  0.00    +0.000 A 
ATOM     15  C   UNL     1      17.631  14.190  40.837  0.00  0.00    +0.000 A 
ATOM     16  C   UNL     1      18.326  15.144  40.105  0.00  0.00    +0.000 A 
ENDBRANCH   1  11
BRANCH   8  17
ATOM     17  C   UNL     1      14.071  13.383  44.524  0.00  0.00    +0.000 C 
ATOM     18  O   UNL     1      14.265  12.386  43.853  0.00  0.00    +0.000 OA
BRANCH  17  19
ATOM     19  O   UNL     1      12.826  13.829  44.828  0.00  0.00    +0.000 OA
BRANCH  19  20
ATOM     20  C   UNL     1      11.689  13.493  43.986  0.00  0.00    +0.000 C 
ATOM     21  C   UNL     1      10.368  13.873  44.713  0.00  0.00    +0.000 C 
ATOM     22  C   UNL     1      11.840  14.243  42.636  0.00  0.00    +0.000 C 
ATOM     23  C   UNL     1       9.167  13.973  43.725  0.00  0.00    +0.000 C 
ATOM     24  C   UNL     1      10.498  14.294  41.848  0.00  0.00    +0.000 C 
ATOM     25  N   UNL     1       9.444  14.946  42.650  0.00  0.00    +0.000 NA
ATOM     26  C   UNL     1       9.005  12.672  42.909  0.00  0.00    +0.000 C 
ATOM     27  C   UNL     1       9.898  12.882  41.662  0.00  0.00    +0.000 C 
ATOM     28  C   UNL     1       9.652  16.362  43.034  0.00  0.00    +0.000 C 
ENDBRANCH  19  20
ENDBRANCH  17  19
ENDBRANCH   8  17
BRANCH   1  30
ATOM     29  O   UNL     1      19.864  16.286  44.978  0.00  0.00    +0.000 OA
ATOM     30  C   UNL     1      18.678  16.573  44.987  0.00  0.00    +0.000 C 
BRANCH  30  31
ATOM     31  O   UNL     1      18.229  17.677  45.632  0.00  0.00    +0.000 OA
BRANCH  31  32
ATOM     32  C   UNL     1      18.377  17.883  47.066  0.00  0.00    +0.000 C 
ATOM     33  C   UNL     1      19.473  18.950  47.370  0.00  0.00    +0.000 C 
ATOM     34  C   UNL     1      16.975  18.315  47.579  0.00  0.00    +0.000 C 
ATOM     35  C   UNL     1      19.271  19.643  48.750  0.00  0.00    +0.000 C 
ATOM     36  C   UNL     1      17.030  19.077  48.932  0.00  0.00    +0.000 C 
ATOM     37  N   UNL     1      17.927  20.244  48.843  0.00  0.00    +0.000 NA
ATOM     38  C   UNL     1      19.223  18.611  49.899  0.00  0.00    +0.000 C 
ATOM     39  C   UNL     1      17.729  18.232  50.018  0.00  0.00    +0.000 C 
ATOM     40  C   UNL     1      17.585  21.301  47.861  0.00  0.00    +0.000 C 
ENDBRANCH  31  32
ENDBRANCH  30  31
ENDBRANCH   1  30
TORSDOF 7
ENDMDL
MODEL 4
REMARK VINA RESULT:    -6.176      1.580      3.766
REMARK INTER + INTRA:         -11.235
REMARK INTER:                 -10.235
REMARK INTRA:                  -1.000
REMARK UNBOUND:                -2.532
REMARK  Name = opt71.pdb
REMARK  9 active torsions:
REMARK  status: ('A' for Active; 'I' for Inactive)
REMARK    1  A    between atoms: C_2  and  O_3
REMARK    2  A    between atoms: C_2  and  C_4
REMARK    3  A    between atoms: O_3  and  C_5
REMARK    4  A    between atoms: C_4  and  C_7
REMARK    5  A    between atoms: C_19  and  C_27
REMARK    6  A    between atoms: N_23  and  C_29
REMARK    7  A    between atoms: C_27  and  O_31
REMARK    8  A    between atoms: O_31  and  C_32
REMARK    9  A    between atoms: N_37  and  C_40
REMARK                            x       y       z     vdW  Elec       q    Type
REMARK                         _______ _______ _______ _____ _____    ______ ____
ROOT
ATOM      1  C   UNL     1      10.932  15.769  43.225  0.00  0.00    +0.000 C 
ATOM      2  C   UNL     1      11.860  14.645  43.004  0.00  0.00    +0.000 A 
ATOM      3  C   UNL     1      11.248  16.737  44.372  0.00  0.00    +0.000 C 
ATOM      4  C   UNL     1      13.106  14.613  43.665  0.00  0.00    +0.000 A 
ATOM      5  C   UNL     1      11.509  13.534  42.211  0.00  0.00    +0.000 A 
ATOM      6  C   UNL     1      12.740  16.986  44.668  0.00  0.00    +0.000 C 
ATOM      7  C   UNL     1      13.891  13.455  43.627  0.00  0.00    +0.000 A 
ATOM      8  C   UNL     1      13.599  15.759  44.401  0.00  0.00    +0.000 C 
ATOM      9  C   UNL     1      12.312  12.398  42.159  0.00  0.00    +0.000 A 
ATOM     10  C   UNL     1      13.495  12.350  42.885  0.00  0.00    +0.000 A 
ENDROOT
BRANCH   1  11
ATOM     11  C   UNL     1      11.126  16.297  41.856  0.00  0.00    +0.000 A 
ATOM     12  C   UNL     1      10.237  15.950  40.821  0.00  0.00    +0.000 A 
ATOM     13  C   UNL     1      12.158  17.200  41.527  0.00  0.00    +0.000 A 
ATOM     14  C   UNL     1      10.361  16.487  39.541  0.00  0.00    +0.000 A 
ATOM     15  C   UNL     1      12.285  17.733  40.246  0.00  0.00    +0.000 A 
ATOM     16  C   UNL     1      11.381  17.385  39.252  0.00  0.00    +0.000 A 
ENDBRANCH   1  11
BRANCH   8  17
ATOM     17  C   UNL     1      15.021  16.181  44.351  0.00  0.00    +0.000 C 
ATOM     18  O   UNL     1      15.796  16.119  45.288  0.00  0.00    +0.000 OA
BRANCH  17  19
ATOM     19  O   UNL     1      15.324  16.826  43.195  0.00  0.00    +0.000 OA
BRANCH  19  20
ATOM     20  C   UNL     1      16.495  16.452  42.418  0.00  0.00    +0.000 C 
ATOM     21  C   UNL     1      17.768  17.079  43.054  0.00  0.00    +0.000 C 
ATOM     22  C   UNL     1      16.579  14.904  42.372  0.00  0.00    +0.000 C 
ATOM     23  C   UNL     1      19.069  16.372  42.571  0.00  0.00    +0.000 C 
ATOM     24  C   UNL     1      17.993  14.411  41.943  0.00  0.00    +0.000 C 
ATOM     25  N   UNL     1      19.026  14.925  42.862  0.00  0.00    +0.000 NA
ATOM     26  C   UNL     1      19.160  16.359  41.029  0.00  0.00    +0.000 C 
ATOM     27  C   UNL     1      18.435  15.057  40.609  0.00  0.00    +0.000 C 
ATOM     28  C   UNL     1      18.951  14.507  44.282  0.00  0.00    +0.000 C 
ENDBRANCH  19  20
ENDBRANCH  17  19
ENDBRANCH   8  17
BRANCH   1  30
ATOM     29  O   UNL     1       8.546  16.166  43.319  0.00  0.00    +0.000 OA
ATOM     30  C   UNL     1       9.500  15.452  43.579  0.00  0.00    +0.000 C 
BRANCH  30  31
ATOM     31  O   UNL     1       9.337  14.276  44.233  0.00  0.00    +0.000 OA
BRANCH  31  32
ATOM     32  C   UNL     1       8.258  13.342  43.946  0.00  0.00    +0.000 C 
ATOM     33  C   UNL     1       6.990  13.671  44.792  0.00  0.00    +0.000 C 
ATOM     34  C   UNL     1       7.993  13.456  42.419  0.00  0.00    +0.000 C 
ATOM     35  C   UNL     1       5.677  13.150  44.136  0.00  0.00    +0.000 C 
ATOM     36  C   UNL     1       6.578  12.963  42.007  0.00  0.00    +0.000 C 
ATOM     37  N   UNL     1       5.532  13.676  42.765  0.00  0.00    +0.000 NA
ATOM     38  C   UNL     1       5.741  11.629  43.873  0.00  0.00    +0.000 C 
ATOM     39  C   UNL     1       6.345  11.505  42.456  0.00  0.00    +0.000 C 
ATOM     40  C   UNL     1       5.450  15.148  42.605  0.00  0.00    +0.000 C 
ENDBRANCH  31  32
ENDBRANCH  30  31
ENDBRANCH   1  30
TORSDOF 7
ENDMDL
MODEL 5
REMARK VINA RESULT:    -6.140      2.412      7.052
REMARK INTER + INTRA:         -11.184
REMARK INTER:                  -9.811
REMARK INTRA:                  -1.373
REMARK UNBOUND:                -2.532
REMARK  Name = opt71.pdb
REMARK  9 active torsions:
REMARK  status: ('A' for Active; 'I' for Inactive)
REMARK    1  A    between atoms: C_2  and  O_3
REMARK    2  A    between atoms: C_2  and  C_4
REMARK    3  A    between atoms: O_3  and  C_5
REMARK    4  A    between atoms: C_4  and  C_7
REMARK    5  A    between atoms: C_19  and  C_27
REMARK    6  A    between atoms: N_23  and  C_29
REMARK    7  A    between atoms: C_27  and  O_31
REMARK    8  A    between atoms: O_31  and  C_32
REMARK    9  A    between atoms: N_37  and  C_40
REMARK                            x       y       z     vdW  Elec       q    Type
REMARK                         _______ _______ _______ _____ _____    ______ ____
ROOT
ATOM      1  C   UNL     1      14.410  17.060  43.497  0.00  0.00    +0.000 C 
ATOM      2  C   UNL     1      14.941  15.799  42.949  0.00  0.00    +0.000 A 
ATOM      3  C   UNL     1      12.931  17.094  43.900  0.00  0.00    +0.000 C 
ATOM      4  C   UNL     1      14.176  14.615  43.026  0.00  0.00    +0.000 A 
ATOM      5  C   UNL     1      16.167  15.744  42.257  0.00  0.00    +0.000 A 
ATOM      6  C   UNL     1      12.341  15.782  44.454  0.00  0.00    +0.000 C 
ATOM      7  C   UNL     1      14.578  13.473  42.322  0.00  0.00    +0.000 A 
ATOM      8  C   UNL     1      12.965  14.549  43.817  0.00  0.00    +0.000 C 
ATOM      9  C   UNL     1      16.569  14.594  41.584  0.00  0.00    +0.000 A 
ATOM     10  C   UNL     1      15.763  13.463  41.599  0.00  0.00    +0.000 A 
ENDROOT
BRANCH   1  11
ATOM     11  C   UNL     1      15.389  17.076  44.608  0.00  0.00    +0.000 A 
ATOM     12  C   UNL     1      16.176  15.942  44.886  0.00  0.00    +0.000 A 
ATOM     13  C   UNL     1      15.624  18.220  45.399  0.00  0.00    +0.000 A 
ATOM     14  C   UNL     1      17.150  15.957  45.882  0.00  0.00    +0.000 A 
ATOM     15  C   UNL     1      16.594  18.232  46.398  0.00  0.00    +0.000 A 
ATOM     16  C   UNL     1      17.367  17.103  46.636  0.00  0.00    +0.000 A 
ENDBRANCH   1  11
BRANCH   8  17
ATOM     17  C   UNL     1      12.623  13.367  44.647  0.00  0.00    +0.000 C 
ATOM     18  O   UNL     1      13.286  12.966  45.587  0.00  0.00    +0.000 OA
BRANCH  17  19
ATOM     19  O   UNL     1      11.587  12.660  44.130  0.00  0.00    +0.000 OA
BRANCH  19  20
ATOM     20  C   UNL     1      10.478  13.334  43.475  0.00  0.00    +0.000 C 
ATOM     21  C   UNL     1       9.999  12.494  42.257  0.00  0.00    +0.000 C 
ATOM     22  C   UNL     1       9.345  13.538  44.515  0.00  0.00    +0.000 C 
ATOM     23  C   UNL     1       8.567  12.900  41.796  0.00  0.00    +0.000 C 
ATOM     24  C   UNL     1       7.981  13.853  43.832  0.00  0.00    +0.000 C 
ATOM     25  N   UNL     1       7.598  12.773  42.903  0.00  0.00    +0.000 NA
ATOM     26  C   UNL     1       8.482  14.414  41.503  0.00  0.00    +0.000 C 
ATOM     27  C   UNL     1       8.099  15.051  42.862  0.00  0.00    +0.000 C 
ATOM     28  C   UNL     1       7.373  11.424  43.475  0.00  0.00    +0.000 C 
ENDBRANCH  19  20
ENDBRANCH  17  19
ENDBRANCH   8  17
BRANCH   1  30
ATOM     29  O   UNL     1      15.452  18.860  42.257  0.00  0.00    +0.000 OA
ATOM     30  C   UNL     1      14.437  18.287  42.617  0.00  0.00    +0.000 C 
BRANCH  30  31
ATOM     31  O   UNL     1      13.213  18.728  42.242  0.00  0.00    +0.000 OA
BRANCH  31  32
ATOM     32  C   UNL     1      12.775  18.795  40.855  0.00  0.00    +0.000 C 
ATOM     33  C   UNL     1      12.317  17.395  40.342  0.00  0.00    +0.000 C 
ATOM     34  C   UNL     1      11.625  19.840  40.824  0.00  0.00    +0.000 C 
ATOM     35  C   UNL     1      11.313  17.489  39.155  0.00  0.00    +0.000 C 
ATOM     36  C   UNL     1      10.689  19.679  39.593  0.00  0.00    +0.000 C 
ATOM     37  N   UNL     1      10.144  18.310  39.522  0.00  0.00    +0.000 NA
ATOM     38  C   UNL     1      11.900  18.301  37.980  0.00  0.00    +0.000 C 
ATOM     39  C   UNL     1      11.487  19.762  38.274  0.00  0.00    +0.000 C 
ATOM     40  C   UNL     1       9.311  17.843  40.656  0.00  0.00    +0.000 C 
ENDBRANCH  31  32
ENDBRANCH  30  31
ENDBRANCH   1  30
TORSDOF 7
ENDMDL
MODEL 6
REMARK VINA RESULT:    -5.976      2.235      8.754
REMARK INTER + INTRA:         -10.953
REMARK INTER:                  -9.466
REMARK INTRA:                  -1.488
REMARK UNBOUND:                -2.532
REMARK  Name = opt71.pdb
REMARK  9 active torsions:
REMARK  status: ('A' for Active; 'I' for Inactive)
REMARK    1  A    between atoms: C_2  and  O_3
REMARK    2  A    between atoms: C_2  and  C_4
REMARK    3  A    between atoms: O_3  and  C_5
REMARK    4  A    between atoms: C_4  and  C_7
REMARK    5  A    between atoms: C_19  and  C_27
REMARK    6  A    between atoms: N_23  and  C_29
REMARK    7  A    between atoms: C_27  and  O_31
REMARK    8  A    between atoms: O_31  and  C_32
REMARK    9  A    between atoms: N_37  and  C_40
REMARK                            x       y       z     vdW  Elec       q    Type
REMARK                         _______ _______ _______ _____ _____    ______ ____
ROOT
ATOM      1  C   UNL     1      13.664  16.156  43.692  0.00  0.00    +0.000 C 
ATOM      2  C   UNL     1      12.782  16.236  42.513  0.00  0.00    +0.000 A 
ATOM      3  C   UNL     1      13.168  15.346  44.896  0.00  0.00    +0.000 C 
ATOM      4  C   UNL     1      11.648  15.402  42.416  0.00  0.00    +0.000 A 
ATOM      5  C   UNL     1      12.979  17.195  41.498  0.00  0.00    +0.000 A 
ATOM      6  C   UNL     1      12.296  14.114  44.582  0.00  0.00    +0.000 C 
ATOM      7  C   UNL     1      10.698  15.622  41.413  0.00  0.00    +0.000 A 
ATOM      8  C   UNL     1      11.432  14.312  43.346  0.00  0.00    +0.000 C 
ATOM      9  C   UNL     1      12.040  17.386  40.490  0.00  0.00    +0.000 A 
ATOM     10  C   UNL     1      10.887  16.613  40.458  0.00  0.00    +0.000 A 
ENDROOT
BRANCH   1  11
ATOM     11  C   UNL     1      14.772  15.556  42.915  0.00  0.00    +0.000 A 
ATOM     12  C   UNL     1      15.793  16.365  42.382  0.00  0.00    +0.000 A 
ATOM     13  C   UNL     1      14.896  14.166  42.714  0.00  0.00    +0.000 A 
ATOM     14  C   UNL     1      16.881  15.816  41.706  0.00  0.00    +0.000 A 
ATOM     15  C   UNL     1      15.981  13.618  42.034  0.00  0.00    +0.000 A 
ATOM     16  C   UNL     1      16.981  14.441  41.535  0.00  0.00    +0.000 A 
ENDBRANCH   1  11
BRANCH   8  17
ATOM     17  C   UNL     1      10.924  12.987  42.910  0.00  0.00    +0.000 C 
ATOM     18  O   UNL     1      11.397  12.328  42.002  0.00  0.00    +0.000 OA
BRANCH  17  19
ATOM     19  O   UNL     1       9.750  12.667  43.510  0.00  0.00    +0.000 OA
BRANCH  19  20
ATOM     20  C   UNL     1       8.547  13.446  43.259  0.00  0.00    +0.000 C 
ATOM     21  C   UNL     1       7.757  12.823  42.073  0.00  0.00    +0.000 C 
ATOM     22  C   UNL     1       7.703  13.478  44.560  0.00  0.00    +0.000 C 
ATOM     23  C   UNL     1       6.276  13.305  42.043  0.00  0.00    +0.000 C 
ATOM     24  C   UNL     1       6.232  13.909  44.286  0.00  0.00    +0.000 C 
ATOM     25  N   UNL     1       5.593  13.000  43.315  0.00  0.00    +0.000 NA
ATOM     26  C   UNL     1       6.191  14.847  42.026  0.00  0.00    +0.000 C 
ATOM     27  C   UNL     1       6.170  15.251  43.521  0.00  0.00    +0.000 C 
ATOM     28  C   UNL     1       5.450  11.576  43.700  0.00  0.00    +0.000 C 
ENDBRANCH  19  20
ENDBRANCH  17  19
ENDBRANCH   8  17
BRANCH   1  30
ATOM     29  O   UNL     1      13.495  18.519  44.190  0.00  0.00    +0.000 OA
ATOM     30  C   UNL     1      14.018  17.438  44.406  0.00  0.00    +0.000 C 
BRANCH  30  31
ATOM     31  O   UNL     1      14.993  17.304  45.337  0.00  0.00    +0.000 OA
BRANCH  31  32
ATOM     32  C   UNL     1      16.309  17.915  45.213  0.00  0.00    +0.000 C 
ATOM     33  C   UNL     1      16.343  19.319  45.891  0.00  0.00    +0.000 C 
ATOM     34  C   UNL     1      17.303  16.918  45.871  0.00  0.00    +0.000 C 
ATOM     35  C   UNL     1      17.778  19.742  46.325  0.00  0.00    +0.000 C 
ATOM     36  C   UNL     1      18.634  17.588  46.313  0.00  0.00    +0.000 C 
ATOM     37  N   UNL     1      18.376  18.727  47.213  0.00  0.00    +0.000 NA
ATOM     38  C   UNL     1      18.759  19.722  45.133  0.00  0.00    +0.000 C 
ATOM     39  C   UNL     1      19.327  18.284  45.123  0.00  0.00    +0.000 C 
ATOM     40  C   UNL     1      17.684  18.448  48.494  0.00  0.00    +0.000 C 
ENDBRANCH  31  32
ENDBRANCH  30  31
ENDBRANCH   1  30
TORSDOF 7
ENDMDL
MODEL 7
REMARK VINA RESULT:    -5.954      2.898      5.503
REMARK INTER + INTRA:         -10.923
REMARK INTER:                  -9.317
REMARK INTRA:                  -1.606
REMARK UNBOUND:                -2.532
REMARK  Name = opt71.pdb
REMARK  9 active torsions:
REMARK  status: ('A' for Active; 'I' for Inactive)
REMARK    1  A    between atoms: C_2  and  O_3
REMARK    2  A    between atoms: C_2  and  C_4
REMARK    3  A    between atoms: O_3  and  C_5
REMARK    4  A    between atoms: C_4  and  C_7
REMARK    5  A    between atoms: C_19  and  C_27
REMARK    6  A    between atoms: N_23  and  C_29
REMARK    7  A    between atoms: C_27  and  O_31
REMARK    8  A    between atoms: O_31  and  C_32
REMARK    9  A    between atoms: N_37  and  C_40
REMARK                            x       y       z     vdW  Elec       q    Type
REMARK                         _______ _______ _______ _____ _____    ______ ____
ROOT
ATOM      1  C   UNL     1       7.666  15.002  42.484  0.00  0.00    +0.000 C 
ATOM      2  C   UNL     1       8.633  16.027  42.915  0.00  0.00    +0.000 A 
ATOM      3  C   UNL     1       8.225  13.688  41.925  0.00  0.00    +0.000 C 
ATOM      4  C   UNL     1      10.002  15.707  43.031  0.00  0.00    +0.000 A 
ATOM      5  C   UNL     1       8.252  17.367  43.135  0.00  0.00    +0.000 A 
ATOM      6  C   UNL     1       9.552  13.194  42.532  0.00  0.00    +0.000 C 
ATOM      7  C   UNL     1      10.946  16.722  43.230  0.00  0.00    +0.000 A 
ATOM      8  C   UNL     1      10.467  14.338  42.941  0.00  0.00    +0.000 C 
ATOM      9  C   UNL     1       9.197  18.362  43.359  0.00  0.00    +0.000 A 
ATOM     10  C   UNL     1      10.549  18.043  43.385  0.00  0.00    +0.000 A 
ENDROOT
BRANCH   1  11
ATOM     11  C   UNL     1       7.037  14.925  43.822  0.00  0.00    +0.000 A 
ATOM     12  C   UNL     1       6.310  16.016  44.336  0.00  0.00    +0.000 A 
ATOM     13  C   UNL     1       7.083  13.763  44.619  0.00  0.00    +0.000 A 
ATOM     14  C   UNL     1       5.653  15.942  45.563  0.00  0.00    +0.000 A 
ATOM     15  C   UNL     1       6.431  13.691  45.848  0.00  0.00    +0.000 A 
ATOM     16  C   UNL     1       5.707  14.778  46.319  0.00  0.00    +0.000 A 
ENDBRANCH   1  11
BRANCH   8  17
ATOM     17  C   UNL     1      11.525  13.800  43.832  0.00  0.00    +0.000 C 
ATOM     18  O   UNL     1      11.388  13.597  45.025  0.00  0.00    +0.000 OA
BRANCH  17  19
ATOM     19  O   UNL     1      12.731  13.731  43.214  0.00  0.00    +0.000 OA
BRANCH  19  20
ATOM     20  C   UNL     1      13.936  14.206  43.875  0.00  0.00    +0.000 C 
ATOM     21  C   UNL     1      14.982  13.058  43.945  0.00  0.00    +0.000 C 
ATOM     22  C   UNL     1      14.476  15.431  43.091  0.00  0.00    +0.000 C 
ATOM     23  C   UNL     1      16.420  13.596  44.211  0.00  0.00    +0.000 C 
ATOM     24  C   UNL     1      15.959  15.743  43.452  0.00  0.00    +0.000 C 
ATOM     25  N   UNL     1      16.819  14.575  43.181  0.00  0.00    +0.000 NA
ATOM     26  C   UNL     1      16.463  14.472  45.482  0.00  0.00    +0.000 C 
ATOM     27  C   UNL     1      16.147  15.902  44.978  0.00  0.00    +0.000 C 
ATOM     28  C   UNL     1      16.916  14.105  41.779  0.00  0.00    +0.000 C 
ENDBRANCH  19  20
ENDBRANCH  17  19
ENDBRANCH   8  17
BRANCH   1  30
ATOM     29  O   UNL     1       5.509  15.469  41.488  0.00  0.00    +0.000 OA
ATOM     30  C   UNL     1       6.716  15.345  41.362  0.00  0.00    +0.000 C 
BRANCH  30  31
ATOM     31  O   UNL     1       7.316  15.511  40.158  0.00  0.00    +0.000 OA
BRANCH  31  32
ATOM     32  C   UNL     1       7.972  16.745  39.752  0.00  0.00    +0.000 C 
ATOM     33  C   UNL     1       9.448  16.483  39.323  0.00  0.00    +0.000 C 
ATOM     34  C   UNL     1       7.113  17.319  38.590  0.00  0.00    +0.000 C 
ATOM     35  C   UNL     1       9.992  17.568  38.346  0.00  0.00    +0.000 C 
ATOM     36  C   UNL     1       7.897  18.311  37.686  0.00  0.00    +0.000 C 
ATOM     37  N   UNL     1       9.124  17.685  37.158  0.00  0.00    +0.000 NA
ATOM     38  C   UNL     1       9.874  18.984  38.950  0.00  0.00    +0.000 C 
ATOM     39  C   UNL     1       8.476  19.478  38.513  0.00  0.00    +0.000 C 
ATOM     40  C   UNL     1       8.970  16.482  36.306  0.00  0.00    +0.000 C 
ENDBRANCH  31  32
ENDBRANCH  30  31
ENDBRANCH   1  30
TORSDOF 7
ENDMDL
MODEL 8
REMARK VINA RESULT:    -5.935      2.341      8.718
REMARK INTER + INTRA:         -10.896
REMARK INTER:                  -9.393
REMARK INTRA:                  -1.502
REMARK UNBOUND:                -2.532
REMARK  Name = opt71.pdb
REMARK  9 active torsions:
REMARK  status: ('A' for Active; 'I' for Inactive)
REMARK    1  A    between atoms: C_2  and  O_3
REMARK    2  A    between atoms: C_2  and  C_4
REMARK    3  A    between atoms: O_3  and  C_5
REMARK    4  A    between atoms: C_4  and  C_7
REMARK    5  A    between atoms: C_19  and  C_27
REMARK    6  A    between atoms: N_23  and  C_29
REMARK    7  A    between atoms: C_27  and  O_31
REMARK    8  A    between atoms: O_31  and  C_32
REMARK    9  A    between atoms: N_37  and  C_40
REMARK                            x       y       z     vdW  Elec       q    Type
REMARK                         _______ _______ _______ _____ _____    ______ ____
ROOT
ATOM      1  C   UNL     1      14.257  16.107  43.655  0.00  0.00    +0.000 C 
ATOM      2  C   UNL     1      13.316  16.286  42.534  0.00  0.00    +0.000 A 
ATOM      3  C   UNL     1      13.842  15.160  44.787  0.00  0.00    +0.000 C 
ATOM      4  C   UNL     1      12.199  15.434  42.402  0.00  0.00    +0.000 A 
ATOM      5  C   UNL     1      13.439  17.352  41.620  0.00  0.00    +0.000 A 
ATOM      6  C   UNL     1      12.986  13.943  44.384  0.00  0.00    +0.000 C 
ATOM      7  C   UNL     1      11.195  15.731  41.473  0.00  0.00    +0.000 A 
ATOM      8  C   UNL     1      12.057  14.245  43.218  0.00  0.00    +0.000 C 
ATOM      9  C   UNL     1      12.447  17.622  40.683  0.00  0.00    +0.000 A 
ATOM     10  C   UNL     1      11.312  16.823  40.623  0.00  0.00    +0.000 A 
ENDROOT
BRANCH   1  11
ATOM     11  C   UNL     1      15.339  15.626  42.767  0.00  0.00    +0.000 A 
ATOM     12  C   UNL     1      16.375  16.491  42.365  0.00  0.00    +0.000 A 
ATOM     13  C   UNL     1      15.424  14.289  42.325  0.00  0.00    +0.000 A 
ATOM     14  C   UNL     1      17.439  16.043  41.585  0.00  0.00    +0.000 A 
ATOM     15  C   UNL     1      16.486  13.843  41.541  0.00  0.00    +0.000 A 
ATOM     16  C   UNL     1      17.501  14.717  41.176  0.00  0.00    +0.000 A 
ENDBRANCH   1  11
BRANCH   8  17
ATOM     17  C   UNL     1      11.559  12.961  42.667  0.00  0.00    +0.000 C 
ATOM     18  O   UNL     1      12.036  12.389  41.703  0.00  0.00    +0.000 OA
BRANCH  17  19
ATOM     19  O   UNL     1      10.389  12.577  43.237  0.00  0.00    +0.000 OA
BRANCH  19  20
ATOM     20  C   UNL     1       9.186  13.380  43.083  0.00  0.00    +0.000 C 
ATOM     21  C   UNL     1       8.410  12.923  41.815  0.00  0.00    +0.000 C 
ATOM     22  C   UNL     1       8.329  13.232  44.367  0.00  0.00    +0.000 C 
ATOM     23  C   UNL     1       6.927  13.402  41.836  0.00  0.00    +0.000 C 
ATOM     24  C   UNL     1       6.859  13.693  44.141  0.00  0.00    +0.000 C 
ATOM     25  N   UNL     1       6.233  12.924  43.048  0.00  0.00    +0.000 NA
ATOM     26  C   UNL     1       6.836  14.931  42.030  0.00  0.00    +0.000 C 
ATOM     27  C   UNL     1       6.799  15.127  43.566  0.00  0.00    +0.000 C 
ATOM     28  C   UNL     1       6.092  11.460  43.233  0.00  0.00    +0.000 C 
ENDBRANCH  19  20
ENDBRANCH  17  19
ENDBRANCH   8  17
BRANCH   1  30
ATOM     29  O   UNL     1      14.088  18.411  44.379  0.00  0.00    +0.000 OA
ATOM     30  C   UNL     1      14.615  17.316  44.485  0.00  0.00    +0.000 C 
BRANCH  30  31
ATOM     31  O   UNL     1      15.601  17.097  45.389  0.00  0.00    +0.000 OA
BRANCH  31  32
ATOM     32  C   UNL     1      16.328  18.166  46.057  0.00  0.00    +0.000 C 
ATOM     33  C   UNL     1      17.147  17.619  47.266  0.00  0.00    +0.000 C 
ATOM     34  C   UNL     1      17.236  18.805  44.970  0.00  0.00    +0.000 C 
ATOM     35  C   UNL     1      18.363  18.523  47.627  0.00  0.00    +0.000 C 
ATOM     36  C   UNL     1      18.444  19.581  45.565  0.00  0.00    +0.000 C 
ATOM     37  N   UNL     1      19.239  18.714  46.455  0.00  0.00    +0.000 NA
ATOM     38  C   UNL     1      17.923  19.974  47.917  0.00  0.00    +0.000 C 
ATOM     39  C   UNL     1      17.973  20.679  46.542  0.00  0.00    +0.000 C 
ATOM     40  C   UNL     1      19.858  17.504  45.863  0.00  0.00    +0.000 C 
ENDBRANCH  31  32
ENDBRANCH  30  31
ENDBRANCH   1  30
TORSDOF 7
ENDMDL
MODEL 9
REMARK VINA RESULT:    -5.798      2.756      5.418
REMARK INTER + INTRA:         -10.702
REMARK INTER:                  -8.991
REMARK INTRA:                  -1.711
REMARK UNBOUND:                -2.532
REMARK  Name = opt71.pdb
REMARK  9 active torsions:
REMARK  status: ('A' for Active; 'I' for Inactive)
REMARK    1  A    between atoms: C_2  and  O_3
REMARK    2  A    between atoms: C_2  and  C_4
REMARK    3  A    between atoms: O_3  and  C_5
REMARK    4  A    between atoms: C_4  and  C_7
REMARK    5  A    between atoms: C_19  and  C_27
REMARK    6  A    between atoms: N_23  and  C_29
REMARK    7  A    between atoms: C_27  and  O_31
REMARK    8  A    between atoms: O_31  and  C_32
REMARK    9  A    between atoms: N_37  and  C_40
REMARK                            x       y       z     vdW  Elec       q    Type
REMARK                         _______ _______ _______ _____ _____    ______ ____
ROOT
ATOM      1  C   UNL     1       9.346  15.114  42.066  0.00  0.00    +0.000 C 
ATOM      2  C   UNL     1      10.101  16.125  42.828  0.00  0.00    +0.000 A 
ATOM      3  C   UNL     1      10.094  13.850  41.626  0.00  0.00    +0.000 C 
ATOM      4  C   UNL     1      11.383  15.821  43.334  0.00  0.00    +0.000 A 
ATOM      5  C   UNL     1       9.624  17.440  43.000  0.00  0.00    +0.000 A 
ATOM      6  C   UNL     1      11.194  13.339  42.577  0.00  0.00    +0.000 C 
ATOM      7  C   UNL     1      12.186  16.835  43.867  0.00  0.00    +0.000 A 
ATOM      8  C   UNL     1      11.902  14.469  43.309  0.00  0.00    +0.000 C 
ATOM      9  C   UNL     1      10.422  18.435  43.556  0.00  0.00    +0.000 A 
ATOM     10  C   UNL     1      11.714  18.137  43.971  0.00  0.00    +0.000 A 
ENDROOT
BRANCH   1  11
ATOM     11  C   UNL     1       8.347  14.939  43.144  0.00  0.00    +0.000 A 
ATOM     12  C   UNL     1       7.395  15.942  43.410  0.00  0.00    +0.000 A 
ATOM     13  C   UNL     1       8.258  13.761  43.915  0.00  0.00    +0.000 A 
ATOM     14  C   UNL     1       6.404  15.770  44.374  0.00  0.00    +0.000 A 
ATOM     15  C   UNL     1       7.270  13.592  44.882  0.00  0.00    +0.000 A 
ATOM     16  C   UNL     1       6.334  14.593  45.108  0.00  0.00    +0.000 A 
ENDBRANCH   1  11
BRANCH   8  17
ATOM     17  C   UNL     1      12.661  13.890  44.446  0.00  0.00    +0.000 C 
ATOM     18  O   UNL     1      12.202  13.694  45.557  0.00  0.00    +0.000 OA
BRANCH  17  19
ATOM     19  O   UNL     1      13.985  13.775  44.172  0.00  0.00    +0.000 OA
BRANCH  19  20
ATOM     20  C   UNL     1      14.916  14.832  44.535  0.00  0.00    +0.000 C 
ATOM     21  C   UNL     1      16.099  14.232  45.347  0.00  0.00    +0.000 C 
ATOM     22  C   UNL     1      15.403  15.525  43.235  0.00  0.00    +0.000 C 
ATOM     23  C   UNL     1      17.331  15.186  45.373  0.00  0.00    +0.000 C 
ATOM     24  C   UNL     1      16.694  16.362  43.473  0.00  0.00    +0.000 C 
ATOM     25  N   UNL     1      17.777  15.513  44.004  0.00  0.00    +0.000 NA
ATOM     26  C   UNL     1      16.942  16.586  45.897  0.00  0.00    +0.000 C 
ATOM     27  C   UNL     1      16.510  17.368  44.632  0.00  0.00    +0.000 C 
ATOM     28  C   UNL     1      18.260  14.402  43.150  0.00  0.00    +0.000 C 
ENDBRANCH  19  20
ENDBRANCH  17  19
ENDBRANCH   8  17
BRANCH   1  30
ATOM     29  O   UNL     1       7.574  15.550  40.474  0.00  0.00    +0.000 OA
ATOM     30  C   UNL     1       8.766  15.515  40.730  0.00  0.00    +0.000 C 
BRANCH  30  31
ATOM     31  O   UNL     1       9.693  15.843  39.798  0.00  0.00    +0.000 OA
BRANCH  31  32
ATOM     32  C   UNL     1      10.068  17.216  39.490  0.00  0.00    +0.000 C 
ATOM     33  C   UNL     1      11.606  17.427  39.645  0.00  0.00    +0.000 C 
ATOM     34  C   UNL     1       9.582  17.471  38.036  0.00  0.00    +0.000 C 
ATOM     35  C   UNL     1      12.139  18.612  38.787  0.00  0.00    +0.000 C 
ATOM     36  C   UNL     1      10.326  18.646  37.342  0.00  0.00    +0.000 C 
ATOM     37  N   UNL     1      11.785  18.431  37.366  0.00  0.00    +0.000 NA
ATOM     38  C   UNL     1      11.402  19.928  39.119  0.00  0.00    +0.000 C 
ATOM     39  C   UNL     1      10.191  19.949  38.158  0.00  0.00    +0.000 C 
ATOM     40  C   UNL     1      12.314  17.229  36.680  0.00  0.00    +0.000 C 
ENDBRANCH  31  32
ENDBRANCH  30  31
ENDBRANCH   1  30
TORSDOF 7
ENDMDL
MODEL 10
REMARK VINA RESULT:    -5.791      2.157      4.217
REMARK INTER + INTRA:         -10.693
REMARK INTER:                  -9.888
REMARK INTRA:                  -0.805
REMARK UNBOUND:                -2.532
REMARK  Name = opt71.pdb
REMARK  9 active torsions:
REMARK  status: ('A' for Active; 'I' for Inactive)
REMARK    1  A    between atoms: C_2  and  O_3
REMARK    2  A    between atoms: C_2  and  C_4
REMARK    3  A    between atoms: O_3  and  C_5
REMARK    4  A    between atoms: C_4  and  C_7
REMARK    5  A    between atoms: C_19  and  C_27
REMARK    6  A    between atoms: N_23  and  C_29
REMARK    7  A    between atoms: C_27  and  O_31
REMARK    8  A    between atoms: O_31  and  C_32
REMARK    9  A    between atoms: N_37  and  C_40
REMARK                            x       y       z     vdW  Elec       q    Type
REMARK                         _______ _______ _______ _____ _____    ______ ____
ROOT
ATOM      1  C   UNL     1      11.038  15.733  43.119  0.00  0.00    +0.000 C 
ATOM      2  C   UNL     1      12.012  14.671  42.809  0.00  0.00    +0.000 A 
ATOM      3  C   UNL     1      11.374  16.693  44.266  0.00  0.00    +0.000 C 
ATOM      4  C   UNL     1      13.299  14.697  43.387  0.00  0.00    +0.000 A 
ATOM      5  C   UNL     1      11.674  13.558  42.013  0.00  0.00    +0.000 A 
ATOM      6  C   UNL     1      12.866  17.023  44.470  0.00  0.00    +0.000 C 
ATOM      7  C   UNL     1      14.145  13.589  43.269  0.00  0.00    +0.000 A 
ATOM      8  C   UNL     1      13.774  15.855  44.118  0.00  0.00    +0.000 C 
ATOM      9  C   UNL     1      12.535  12.473  41.881  0.00  0.00    +0.000 A 
ATOM     10  C   UNL     1      13.764  12.478  42.527  0.00  0.00    +0.000 A 
ENDROOT
BRANCH   1  11
ATOM     11  C   UNL     1      11.111  16.300  41.753  0.00  0.00    +0.000 A 
ATOM     12  C   UNL     1      10.178  15.920  40.769  0.00  0.00    +0.000 A 
ATOM     13  C   UNL     1      12.063  17.272  41.382  0.00  0.00    +0.000 A 
ATOM     14  C   UNL     1      10.186  16.491  39.498  0.00  0.00    +0.000 A 
ATOM     15  C   UNL     1      12.073  17.838  40.109  0.00  0.00    +0.000 A 
ATOM     16  C   UNL     1      11.128  17.456  39.166  0.00  0.00    +0.000 A 
ENDBRANCH   1  11
BRANCH   8  17
ATOM     17  C   UNL     1      15.163  16.361  43.986  0.00  0.00    +0.000 C 
ATOM     18  O   UNL     1      15.790  16.395  42.942  0.00  0.00    +0.000 OA
BRANCH  17  19
ATOM     19  O   UNL     1      15.735  16.610  45.190  0.00  0.00    +0.000 OA
BRANCH  19  20
ATOM     20  C   UNL     1      16.770  17.623  45.328  0.00  0.00    +0.000 C 
ATOM     21  C   UNL     1      16.208  18.843  46.111  0.00  0.00    +0.000 C 
ATOM     22  C   UNL     1      17.986  16.986  46.051  0.00  0.00    +0.000 C 
ATOM     23  C   UNL     1      17.345  19.740  46.686  0.00  0.00    +0.000 C 
ATOM     24  C   UNL     1      18.954  18.065  46.619  0.00  0.00    +0.000 C 
ATOM     25  N   UNL     1      18.248  18.960  47.556  0.00  0.00    +0.000 NA
ATOM     26  C   UNL     1      18.321  20.186  45.575  0.00  0.00    +0.000 C 
ATOM     27  C   UNL     1      19.389  19.066  45.524  0.00  0.00    +0.000 C 
ATOM     28  C   UNL     1      17.675  18.355  48.782  0.00  0.00    +0.000 C 
ENDBRANCH  19  20
ENDBRANCH  17  19
ENDBRANCH   8  17
BRANCH   1  30
ATOM     29  O   UNL     1       8.664  16.035  43.484  0.00  0.00    +0.000 OA
ATOM     30  C   UNL     1       9.653  15.325  43.557  0.00  0.00    +0.000 C 
BRANCH  30  31
ATOM     31  O   UNL     1       9.578  14.068  44.060  0.00  0.00    +0.000 OA
BRANCH  31  32
ATOM     32  C   UNL     1       8.458  13.171  43.811  0.00  0.00    +0.000 C 
ATOM     33  C   UNL     1       7.240  13.528  44.717  0.00  0.00    +0.000 C 
ATOM     34  C   UNL     1       8.131  13.312  42.299  0.00  0.00    +0.000 C 
ATOM     35  C   UNL     1       5.884  13.055  44.114  0.00  0.00    +0.000 C 
ATOM     36  C   UNL     1       6.684  12.868  41.945  0.00  0.00    +0.000 C 
ATOM     37  N   UNL     1       5.695  13.603  42.757  0.00  0.00    +0.000 NA
ATOM     38  C   UNL     1       5.889  11.537  43.832  0.00  0.00    +0.000 C 
ATOM     39  C   UNL     1       6.426  11.412  42.387  0.00  0.00    +0.000 C 
ATOM     40  C   UNL     1       5.651  15.078  42.617  0.00  0.00    +0.000 C 
ENDBRANCH  31  32
ENDBRANCH  30  31
ENDBRANCH   1  30
TORSDOF 7
ENDMDL
MODEL 11
REMARK VINA RESULT:    -5.729      1.975      3.772
REMARK INTER + INTRA:         -10.606
REMARK INTER:                  -8.529
REMARK INTRA:                  -2.077
REMARK UNBOUND:                -2.532
REMARK  Name = opt71.pdb
REMARK  9 active torsions:
REMARK  status: ('A' for Active; 'I' for Inactive)
REMARK    1  A    between atoms: C_2  and  O_3
REMARK    2  A    between atoms: C_2  and  C_4
REMARK    3  A    between atoms: O_3  and  C_5
REMARK    4  A    between atoms: C_4  and  C_7
REMARK    5  A    between atoms: C_19  and  C_27
REMARK    6  A    between atoms: N_23  and  C_29
REMARK    7  A    between atoms: C_27  and  O_31
REMARK    8  A    between atoms: O_31  and  C_32
REMARK    9  A    between atoms: N_37  and  C_40
REMARK                            x       y       z     vdW  Elec       q    Type
REMARK                         _______ _______ _______ _____ _____    ______ ____
ROOT
ATOM      1  C   UNL     1      12.484  17.262  43.755  0.00  0.00    +0.000 C 
ATOM      2  C   UNL     1      13.365  16.099  43.545  0.00  0.00    +0.000 A 
ATOM      3  C   UNL     1      12.695  18.093  45.026  0.00  0.00    +0.000 C 
ATOM      4  C   UNL     1      14.503  15.914  44.359  0.00  0.00    +0.000 A 
ATOM      5  C   UNL     1      13.063  15.094  42.603  0.00  0.00    +0.000 A 
ATOM      6  C   UNL     1      14.143  18.204  45.541  0.00  0.00    +0.000 C 
ATOM      7  C   UNL     1      15.215  14.710  44.307  0.00  0.00    +0.000 A 
ATOM      8  C   UNL     1      14.957  16.948  45.267  0.00  0.00    +0.000 C 
ATOM      9  C   UNL     1      13.795  13.913  42.542  0.00  0.00    +0.000 A 
ATOM     10  C   UNL     1      14.861  13.711  43.410  0.00  0.00    +0.000 A 
ENDROOT
BRANCH   1  11
ATOM     11  C   UNL     1      12.898  17.899  42.484  0.00  0.00    +0.000 A 
ATOM     12  C   UNL     1      14.044  18.715  42.431  0.00  0.00    +0.000 A 
ATOM     13  C   UNL     1      12.215  17.687  41.268  0.00  0.00    +0.000 A 
ATOM     14  C   UNL     1      14.490  19.269  41.233  0.00  0.00    +0.000 A 
ATOM     15  C   UNL     1      12.659  18.245  40.072  0.00  0.00    +0.000 A 
ATOM     16  C   UNL     1      13.803  19.031  40.049  0.00  0.00    +0.000 A 
ENDBRANCH   1  11
BRANCH   8  17
ATOM     17  C   UNL     1      16.394  17.268  45.448  0.00  0.00    +0.000 C 
ATOM     18  O   UNL     1      16.955  17.346  46.527  0.00  0.00    +0.000 OA
BRANCH  17  19
ATOM     19  O   UNL     1      16.984  17.653  44.289  0.00  0.00    +0.000 OA
BRANCH  19  20
ATOM     20  C   UNL     1      17.720  16.698  43.475  0.00  0.00    +0.000 C 
ATOM     21  C   UNL     1      17.200  16.748  42.010  0.00  0.00    +0.000 C 
ATOM     22  C   UNL     1      19.231  17.042  43.561  0.00  0.00    +0.000 C 
ATOM     23  C   UNL     1      18.213  16.114  41.010  0.00  0.00    +0.000 C 
ATOM     24  C   UNL     1      20.045  16.369  42.417  0.00  0.00    +0.000 C 
ATOM     25  N   UNL     1      19.529  16.779  41.097  0.00  0.00    +0.000 NA
ATOM     26  C   UNL     1      18.584  14.674  41.427  0.00  0.00    +0.000 C 
ATOM     27  C   UNL     1      19.800  14.844  42.371  0.00  0.00    +0.000 C 
ATOM     28  C   UNL     1      19.603  18.217  40.748  0.00  0.00    +0.000 C 
ENDBRANCH  19  20
ENDBRANCH  17  19
ENDBRANCH   8  17
BRANCH   1  30
ATOM     29  O   UNL     1      10.139  17.860  43.684  0.00  0.00    +0.000 OA
ATOM     30  C   UNL     1      11.000  17.018  43.882  0.00  0.00    +0.000 C 
BRANCH  30  31
ATOM     31  O   UNL     1      10.674  15.754  44.246  0.00  0.00    +0.000 OA
BRANCH  31  32
ATOM     32  C   UNL     1       9.516  15.043  43.724  0.00  0.00    +0.000 C 
ATOM     33  C   UNL     1       9.588  14.913  42.172  0.00  0.00    +0.000 C 
ATOM     34  C   UNL     1       9.515  13.659  44.432  0.00  0.00    +0.000 C 
ATOM     35  C   UNL     1       8.767  13.705  41.631  0.00  0.00    +0.000 C 
ATOM     36  C   UNL     1       8.708  12.580  43.657  0.00  0.00    +0.000 C 
ATOM     37  N   UNL     1       9.200  12.449  42.273  0.00  0.00    +0.000 NA
ATOM     38  C   UNL     1       7.290  13.780  42.074  0.00  0.00    +0.000 C 
ATOM     39  C   UNL     1       7.251  13.033  43.427  0.00  0.00    +0.000 C 
ATOM     40  C   UNL     1      10.611  12.036  42.081  0.00  0.00    +0.000 C 
ENDBRANCH  31  32
ENDBRANCH  30  31
ENDBRANCH   1  30
TORSDOF 7
ENDMDL
MODEL 12
REMARK VINA RESULT:    -5.557      2.070      8.149
REMARK INTER + INTRA:         -10.363
REMARK INTER:                  -7.994
REMARK INTRA:                  -2.369
REMARK UNBOUND:                -2.532
REMARK  Name = opt71.pdb
REMARK  9 active torsions:
REMARK  status: ('A' for Active; 'I' for Inactive)
REMARK    1  A    between atoms: C_2  and  O_3
REMARK    2  A    between atoms: C_2  and  C_4
REMARK    3  A    between atoms: O_3  and  C_5
REMARK    4  A    between atoms: C_4  and  C_7
REMARK    5  A    between atoms: C_19  and  C_27
REMARK    6  A    between atoms: N_23  and  C_29
REMARK    7  A    between atoms: C_27  and  O_31
REMARK    8  A    between atoms: O_31  and  C_32
REMARK    9  A    between atoms: N_37  and  C_40
REMARK                            x       y       z     vdW  Elec       q    Type
REMARK                         _______ _______ _______ _____ _____    ______ ____
ROOT
ATOM      1  C   UNL     1      13.171  18.219  42.750  0.00  0.00    +0.000 C 
ATOM      2  C   UNL     1      12.394  17.058  43.222  0.00  0.00    +0.000 A 
ATOM      3  C   UNL     1      13.332  18.398  41.236  0.00  0.00    +0.000 C 
ATOM      4  C   UNL     1      11.634  16.295  42.310  0.00  0.00    +0.000 A 
ATOM      5  C   UNL     1      12.450  16.617  44.559  0.00  0.00    +0.000 A 
ATOM      6  C   UNL     1      12.149  17.940  40.361  0.00  0.00    +0.000 C 
ATOM      7  C   UNL     1      11.072  15.077  42.711  0.00  0.00    +0.000 A 
ATOM      8  C   UNL     1      11.422  16.739  40.948  0.00  0.00    +0.000 C 
ATOM      9  C   UNL     1      11.864  15.418  44.952  0.00  0.00    +0.000 A 
ATOM     10  C   UNL     1      11.192  14.635  44.022  0.00  0.00    +0.000 A 
ENDROOT
BRANCH   1  11
ATOM     11  C   UNL     1      12.281  19.186  43.429  0.00  0.00    +0.000 A 
ATOM     12  C   UNL     1      12.705  19.856  44.593  0.00  0.00    +0.000 A 
ATOM     13  C   UNL     1      11.006  19.527  42.932  0.00  0.00    +0.000 A 
ATOM     14  C   UNL     1      11.911  20.820  45.210  0.00  0.00    +0.000 A 
ATOM     15  C   UNL     1      10.210  20.486  43.553  0.00  0.00    +0.000 A 
ATOM     16  C   UNL     1      10.664  21.143  44.689  0.00  0.00    +0.000 A 
ENDBRANCH   1  11
BRANCH   8  17
ATOM     17  C   UNL     1      10.112  16.601  40.264  0.00  0.00    +0.000 C 
ATOM     18  O   UNL     1       9.947  16.053  39.189  0.00  0.00    +0.000 OA
BRANCH  17  19
ATOM     19  O   UNL     1       9.136  17.320  40.875  0.00  0.00    +0.000 OA
BRANCH  19  20
ATOM     20  C   UNL     1       8.092  16.657  41.641  0.00  0.00    +0.000 C 
ATOM     21  C   UNL     1       8.133  17.148  43.116  0.00  0.00    +0.000 C 
ATOM     22  C   UNL     1       6.726  16.960  40.971  0.00  0.00    +0.000 C 
ATOM     23  C   UNL     1       6.801  16.848  43.867  0.00  0.00    +0.000 C 
ATOM     24  C   UNL     1       5.533  16.666  41.928  0.00  0.00    +0.000 C 
ATOM     25  N   UNL     1       5.651  17.456  43.169  0.00  0.00    +0.000 NA
ATOM     26  C   UNL     1       6.438  15.350  43.783  0.00  0.00    +0.000 C 
ATOM     27  C   UNL     1       5.599  15.226  42.487  0.00  0.00    +0.000 C 
ATOM     28  C   UNL     1       5.616  18.932  43.047  0.00  0.00    +0.000 C 
ENDBRANCH  19  20
ENDBRANCH  17  19
ENDBRANCH   8  17
BRANCH   1  30
ATOM     29  O   UNL     1      15.389  19.189  42.781  0.00  0.00    +0.000 OA
ATOM     30  C   UNL     1      14.624  18.313  43.149  0.00  0.00    +0.000 C 
BRANCH  30  31
ATOM     31  O   UNL     1      15.039  17.320  43.973  0.00  0.00    +0.000 OA
BRANCH  31  32
ATOM     32  C   UNL     1      16.126  16.409  43.647  0.00  0.00    +0.000 C 
ATOM     33  C   UNL     1      16.623  15.650  44.915  0.00  0.00    +0.000 C 
ATOM     34  C   UNL     1      15.562  15.446  42.566  0.00  0.00    +0.000 C 
ATOM     35  C   UNL     1      17.308  14.293  44.573  0.00  0.00    +0.000 C 
ATOM     36  C   UNL     1      16.349  14.109  42.470  0.00  0.00    +0.000 C 
ATOM     37  N   UNL     1      16.405  13.436  43.781  0.00  0.00    +0.000 NA
ATOM     38  C   UNL     1      18.485  14.484  43.593  0.00  0.00    +0.000 C 
ATOM     39  C   UNL     1      17.845  14.365  42.190  0.00  0.00    +0.000 C 
ATOM     40  C   UNL     1      15.120  13.040  44.405  0.00  0.00    +0.000 C 
ENDBRANCH  31  32
ENDBRANCH  30  31
ENDBRANCH   1  30
TORSDOF 7
ENDMDL
MODEL 13
REMARK VINA RESULT:    -5.554      2.058      4.280
REMARK INTER + INTRA:         -10.359
REMARK INTER:                  -8.872
REMARK INTRA:                  -1.487
REMARK UNBOUND:                -2.532
REMARK  Name = opt71.pdb
REMARK  9 active torsions:
REMARK  status: ('A' for Active; 'I' for Inactive)
REMARK    1  A    between atoms: C_2  and  O_3
REMARK    2  A    between atoms: C_2  and  C_4
REMARK    3  A    between atoms: O_3  and  C_5
REMARK    4  A    between atoms: C_4  and  C_7
REMARK    5  A    between atoms: C_19  and  C_27
REMARK    6  A    between atoms: N_23  and  C_29
REMARK    7  A    between atoms: C_27  and  O_31
REMARK    8  A    between atoms: O_31  and  C_32
REMARK    9  A    between atoms: N_37  and  C_40
REMARK                            x       y       z     vdW  Elec       q    Type
REMARK                         _______ _______ _______ _____ _____    ______ ____
ROOT
ATOM      1  C   UNL     1      10.984  15.768  43.196  0.00  0.00    +0.000 C 
ATOM      2  C   UNL     1      11.926  14.662  42.943  0.00  0.00    +0.000 A 
ATOM      3  C   UNL     1      11.312  16.733  44.341  0.00  0.00    +0.000 C 
ATOM      4  C   UNL     1      13.189  14.648  43.573  0.00  0.00    +0.000 A 
ATOM      5  C   UNL     1      11.576  13.550  42.152  0.00  0.00    +0.000 A 
ATOM      6  C   UNL     1      12.806  17.008  44.601  0.00  0.00    +0.000 C 
ATOM      7  C   UNL     1      13.994  13.505  43.507  0.00  0.00    +0.000 A 
ATOM      8  C   UNL     1      13.680  15.798  44.304  0.00  0.00    +0.000 C 
ATOM      9  C   UNL     1      12.397  12.429  42.072  0.00  0.00    +0.000 A 
ATOM     10  C   UNL     1      13.599  12.398  42.768  0.00  0.00    +0.000 A 
ENDROOT
BRANCH   1  11
ATOM     11  C   UNL     1      11.134  16.308  41.826  0.00  0.00    +0.000 A 
ATOM     12  C   UNL     1      10.228  15.948  40.810  0.00  0.00    +0.000 A 
ATOM     13  C   UNL     1      12.139  17.235  41.478  0.00  0.00    +0.000 A 
ATOM     14  C   UNL     1      10.309  16.496  39.532  0.00  0.00    +0.000 A 
ATOM     15  C   UNL     1      12.223  17.778  40.198  0.00  0.00    +0.000 A 
ATOM     16  C   UNL     1      11.303  17.416  39.223  0.00  0.00    +0.000 A 
ENDBRANCH   1  11
BRANCH   8  17
ATOM     17  C   UNL     1      15.092  16.247  44.221  0.00  0.00    +0.000 C 
ATOM     18  O   UNL     1      15.839  16.367  45.176  0.00  0.00    +0.000 OA
BRANCH  17  19
ATOM     19  O   UNL     1      15.416  16.694  42.981  0.00  0.00    +0.000 OA
BRANCH  19  20
ATOM     20  C   UNL     1      16.178  17.920  42.806  0.00  0.00    +0.000 C 
ATOM     21  C   UNL     1      17.047  17.818  41.520  0.00  0.00    +0.000 C 
ATOM     22  C   UNL     1      15.185  19.109  42.737  0.00  0.00    +0.000 C 
ATOM     23  C   UNL     1      17.522  19.218  41.026  0.00  0.00    +0.000 C 
ATOM     24  C   UNL     1      15.847  20.384  42.136  0.00  0.00    +0.000 C 
ATOM     25  N   UNL     1      16.373  20.113  40.785  0.00  0.00    +0.000 NA
ATOM     26  C   UNL     1      18.261  19.984  42.144  0.00  0.00    +0.000 C 
ATOM     27  C   UNL     1      17.144  20.756  42.890  0.00  0.00    +0.000 C 
ATOM     28  C   UNL     1      15.401  19.723  39.736  0.00  0.00    +0.000 C 
ENDBRANCH  19  20
ENDBRANCH  17  19
ENDBRANCH   8  17
BRANCH   1  30
ATOM     29  O   UNL     1       8.601  16.141  43.393  0.00  0.00    +0.000 OA
ATOM     30  C   UNL     1       9.567  15.422  43.584  0.00  0.00    +0.000 C 
BRANCH  30  31
ATOM     31  O   UNL     1       9.435  14.214  44.184  0.00  0.00    +0.000 OA
BRANCH  31  32
ATOM     32  C   UNL     1       8.339  13.297  43.906  0.00  0.00    +0.000 C 
ATOM     33  C   UNL     1       7.101  13.613  44.799  0.00  0.00    +0.000 C 
ATOM     34  C   UNL     1       8.030  13.453  42.391  0.00  0.00    +0.000 C 
ATOM     35  C   UNL     1       5.764  13.120  44.170  0.00  0.00    +0.000 C 
ATOM     36  C   UNL     1       6.598  12.983  42.011  0.00  0.00    +0.000 C 
ATOM     37  N   UNL     1       5.582  13.683  42.818  0.00  0.00    +0.000 NA
ATOM     38  C   UNL     1       5.807  11.606  43.865  0.00  0.00    +0.000 C 
ATOM     39  C   UNL     1       6.366  11.515  42.427  0.00  0.00    +0.000 C 
ATOM     40  C   UNL     1       5.508  15.159  42.700  0.00  0.00    +0.000 C 
ENDBRANCH  31  32
ENDBRANCH  30  31
ENDBRANCH   1  30
TORSDOF 7
ENDMDL
MODEL 14
REMARK VINA RESULT:    -5.530      1.799      3.793
REMARK INTER + INTRA:         -10.325
REMARK INTER:                  -8.877
REMARK INTRA:                  -1.448
REMARK UNBOUND:                -2.532
REMARK  Name = opt71.pdb
REMARK  9 active torsions:
REMARK  status: ('A' for Active; 'I' for Inactive)
REMARK    1  A    between atoms: C_2  and  O_3
REMARK    2  A    between atoms: C_2  and  C_4
REMARK    3  A    between atoms: O_3  and  C_5
REMARK    4  A    between atoms: C_4  and  C_7
REMARK    5  A    between atoms: C_19  and  C_27
REMARK    6  A    between atoms: N_23  and  C_29
REMARK    7  A    between atoms: C_27  and  O_31
REMARK    8  A    between atoms: O_31  and  C_32
REMARK    9  A    between atoms: N_37  and  C_40
REMARK                            x       y       z     vdW  Elec       q    Type
REMARK                         _______ _______ _______ _____ _____    ______ ____
ROOT
ATOM      1  C   UNL     1      10.638  16.838  42.912  0.00  0.00    +0.000 C 
ATOM      2  C   UNL     1      11.615  17.603  42.116  0.00  0.00    +0.000 A 
ATOM      3  C   UNL     1      11.168  16.031  44.102  0.00  0.00    +0.000 C 
ATOM      4  C   UNL     1      12.935  17.772  42.584  0.00  0.00    +0.000 A 
ATOM      5  C   UNL     1      11.303  18.108  40.837  0.00  0.00    +0.000 A 
ATOM      6  C   UNL     1      12.376  16.626  44.852  0.00  0.00    +0.000 C 
ATOM      7  C   UNL     1      13.916  18.307  41.741  0.00  0.00    +0.000 A 
ATOM      8  C   UNL     1      13.312  17.394  43.931  0.00  0.00    +0.000 C 
ATOM      9  C   UNL     1      12.282  18.663  40.018  0.00  0.00    +0.000 A 
ATOM     10  C   UNL     1      13.595  18.744  40.463  0.00  0.00    +0.000 A 
ENDROOT
BRANCH   1  11
ATOM     11  C   UNL     1       9.850  18.046  43.243  0.00  0.00    +0.000 A 
ATOM     12  C   UNL     1      10.490  19.226  43.669  0.00  0.00    +0.000 A 
ATOM     13  C   UNL     1       8.447  18.103  43.104  0.00  0.00    +0.000 A 
ATOM     14  C   UNL     1       9.774  20.395  43.921  0.00  0.00    +0.000 A 
ATOM     15  C   UNL     1       7.732  19.270  43.361  0.00  0.00    +0.000 A 
ATOM     16  C   UNL     1       8.395  20.422  43.762  0.00  0.00    +0.000 A 
ENDBRANCH   1  11
BRANCH   8  17
ATOM     17  C   UNL     1      14.216  18.225  44.764  0.00  0.00    +0.000 C 
ATOM     18  O   UNL     1      13.956  19.347  45.159  0.00  0.00    +0.000 OA
BRANCH  17  19
ATOM     19  O   UNL     1      15.450  17.676  44.887  0.00  0.00    +0.000 OA
BRANCH  19  20
ATOM     20  C   UNL     1      15.707  16.314  44.444  0.00  0.00    +0.000 C 
ATOM     21  C   UNL     1      16.696  16.331  43.244  0.00  0.00    +0.000 C 
ATOM     22  C   UNL     1      16.271  15.507  45.643  0.00  0.00    +0.000 C 
ATOM     23  C   UNL     1      17.361  14.940  43.018  0.00  0.00    +0.000 C 
ATOM     24  C   UNL     1      16.966  14.192  45.182  0.00  0.00    +0.000 C 
ATOM     25  N   UNL     1      18.060  14.483  44.236  0.00  0.00    +0.000 NA
ATOM     26  C   UNL     1      16.298  13.832  42.855  0.00  0.00    +0.000 C 
ATOM     27  C   UNL     1      16.028  13.338  44.298  0.00  0.00    +0.000 C 
ATOM     28  C   UNL     1      19.196  15.297  44.729  0.00  0.00    +0.000 C 
ENDBRANCH  19  20
ENDBRANCH  17  19
ENDBRANCH   8  17
BRANCH   1  30
ATOM     29  O   UNL     1       9.735  15.638  41.013  0.00  0.00    +0.000 OA
ATOM     30  C   UNL     1       9.856  15.747  42.222  0.00  0.00    +0.000 C 
BRANCH  30  31
ATOM     31  O   UNL     1       9.272  14.863  43.067  0.00  0.00    +0.000 OA
BRANCH  31  32
ATOM     32  C   UNL     1       8.191  13.971  42.674  0.00  0.00    +0.000 C 
ATOM     33  C   UNL     1       8.167  12.690  43.562  0.00  0.00    +0.000 C 
ATOM     34  C   UNL     1       6.885  14.804  42.805  0.00  0.00    +0.000 C 
ATOM     35  C   UNL     1       6.760  12.024  43.620  0.00  0.00    +0.000 C 
ATOM     36  C   UNL     1       5.612  13.923  42.947  0.00  0.00    +0.000 C 
ATOM     37  N   UNL     1       5.743  12.989  44.081  0.00  0.00    +0.000 NA
ATOM     38  C   UNL     1       6.238  11.682  42.208  0.00  0.00    +0.000 C 
ATOM     39  C   UNL     1       5.475  12.949  41.757  0.00  0.00    +0.000 C 
ATOM     40  C   UNL     1       5.918  13.570  45.433  0.00  0.00    +0.000 C 
ENDBRANCH  31  32
ENDBRANCH  30  31
ENDBRANCH   1  30
TORSDOF 7
ENDMDL
MODEL 15
REMARK VINA RESULT:    -5.466      1.836      8.036
REMARK INTER + INTRA:         -10.235
REMARK INTER:                  -8.229
REMARK INTRA:                  -2.006
REMARK UNBOUND:                -2.532
REMARK  Name = opt71.pdb
REMARK  9 active torsions:
REMARK  status: ('A' for Active; 'I' for Inactive)
REMARK    1  A    between atoms: C_2  and  O_3
REMARK    2  A    between atoms: C_2  and  C_4
REMARK    3  A    between atoms: O_3  and  C_5
REMARK    4  A    between atoms: C_4  and  C_7
REMARK    5  A    between atoms: C_19  and  C_27
REMARK    6  A    between atoms: N_23  and  C_29
REMARK    7  A    between atoms: C_27  and  O_31
REMARK    8  A    between atoms: O_31  and  C_32
REMARK    9  A    between atoms: N_37  and  C_40
REMARK                            x       y       z     vdW  Elec       q    Type
REMARK                         _______ _______ _______ _____ _____    ______ ____
ROOT
ATOM      1  C   UNL     1      11.872  17.426  42.141  0.00  0.00    +0.000 C 
ATOM      2  C   UNL     1      10.744  17.351  41.194  0.00  0.00    +0.000 A 
ATOM      3  C   UNL     1      11.887  18.593  43.136  0.00  0.00    +0.000 C 
ATOM      4  C   UNL     1       9.615  18.179  41.368  0.00  0.00    +0.000 A 
ATOM      5  C   UNL     1      10.787  16.532  40.048  0.00  0.00    +0.000 A 
ATOM      6  C   UNL     1      10.516  19.089  43.633  0.00  0.00    +0.000 C 
ATOM      7  C   UNL     1       8.646  18.265  40.362  0.00  0.00    +0.000 A 
ATOM      8  C   UNL     1       9.431  18.960  42.574  0.00  0.00    +0.000 C 
ATOM      9  C   UNL     1       9.803  16.606  39.066  0.00  0.00    +0.000 A 
ATOM     10  C   UNL     1       8.741  17.490  39.213  0.00  0.00    +0.000 A 
ENDROOT
BRANCH   1  11
ATOM     11  C   UNL     1      11.583  16.090  42.708  0.00  0.00    +0.000 A 
ATOM     12  C   UNL     1      11.290  15.001  41.865  0.00  0.00    +0.000 A 
ATOM     13  C   UNL     1      11.636  15.823  44.092  0.00  0.00    +0.000 A 
ATOM     14  C   UNL     1      11.081  13.721  42.373  0.00  0.00    +0.000 A 
ATOM     15  C   UNL     1      11.422  14.543  44.599  0.00  0.00    +0.000 A 
ATOM     16  C   UNL     1      11.153  13.486  43.740  0.00  0.00    +0.000 A 
ENDBRANCH   1  11
BRANCH   8  17
ATOM     17  C   UNL     1       8.109  19.101  43.233  0.00  0.00    +0.000 C 
ATOM     18  O   UNL     1       7.492  20.147  43.331  0.00  0.00    +0.000 OA
BRANCH  17  19
ATOM     19  O   UNL     1       7.740  17.971  43.888  0.00  0.00    +0.000 OA
BRANCH  19  20
ATOM     20  C   UNL     1       7.427  16.754  43.155  0.00  0.00    +0.000 C 
ATOM     21  C   UNL     1       8.105  15.537  43.847  0.00  0.00    +0.000 C 
ATOM     22  C   UNL     1       5.885  16.599  43.097  0.00  0.00    +0.000 C 
ATOM     23  C   UNL     1       7.462  14.187  43.410  0.00  0.00    +0.000 C 
ATOM     24  C   UNL     1       5.462  15.148  42.721  0.00  0.00    +0.000 C 
ATOM     25  N   UNL     1       6.011  14.176  43.686  0.00  0.00    +0.000 NA
ATOM     26  C   UNL     1       7.470  14.035  41.873  0.00  0.00    +0.000 C 
ATOM     27  C   UNL     1       6.141  14.683  41.413  0.00  0.00    +0.000 C 
ATOM     28  C   UNL     1       5.575  14.289  45.097  0.00  0.00    +0.000 C 
ENDBRANCH  19  20
ENDBRANCH  17  19
ENDBRANCH   8  17
BRANCH   1  30
ATOM     29  O   UNL     1      13.732  18.632  41.169  0.00  0.00    +0.000 OA
ATOM     30  C   UNL     1      13.264  17.583  41.579  0.00  0.00    +0.000 C 
BRANCH  30  31
ATOM     31  O   UNL     1      13.987  16.437  41.558  0.00  0.00    +0.000 OA
BRANCH  31  32
ATOM     32  C   UNL     1      14.836  16.005  42.659  0.00  0.00    +0.000 C 
ATOM     33  C   UNL     1      14.919  14.449  42.727  0.00  0.00    +0.000 C 
ATOM     34  C   UNL     1      16.223  16.659  42.406  0.00  0.00    +0.000 C 
ATOM     35  C   UNL     1      16.215  13.946  43.430  0.00  0.00    +0.000 C 
ATOM     36  C   UNL     1      17.384  15.927  43.136  0.00  0.00    +0.000 C 
ATOM     37  N   UNL     1      17.415  14.498  42.773  0.00  0.00    +0.000 NA
ATOM     38  C   UNL     1      16.350  14.532  44.853  0.00  0.00    +0.000 C 
ATOM     39  C   UNL     1      17.126  15.855  44.656  0.00  0.00    +0.000 C 
ATOM     40  C   UNL     1      17.629  14.156  41.346  0.00  0.00    +0.000 C 
ENDBRANCH  31  32
ENDBRANCH  30  31
ENDBRANCH   1  30
TORSDOF 7
ENDMDL
MODEL 16
REMARK VINA RESULT:    -5.441      2.121      3.385
REMARK INTER + INTRA:         -10.199
REMARK INTER:                  -8.828
REMARK INTRA:                  -1.371
REMARK UNBOUND:                -2.532
REMARK  Name = opt71.pdb
REMARK  9 active torsions:
REMARK  status: ('A' for Active; 'I' for Inactive)
REMARK    1  A    between atoms: C_2  and  O_3
REMARK    2  A    between atoms: C_2  and  C_4
REMARK    3  A    between atoms: O_3  and  C_5
REMARK    4  A    between atoms: C_4  and  C_7
REMARK    5  A    between atoms: C_19  and  C_27
REMARK    6  A    between atoms: N_23  and  C_29
REMARK    7  A    between atoms: C_27  and  O_31
REMARK    8  A    between atoms: O_31  and  C_32
REMARK    9  A    between atoms: N_37  and  C_40
REMARK                            x       y       z     vdW  Elec       q    Type
REMARK                         _______ _______ _______ _____ _____    ______ ____
ROOT
ATOM      1  C   UNL     1      11.476  15.234  42.837  0.00  0.00    +0.000 C 
ATOM      2  C   UNL     1      11.960  16.454  43.508  0.00  0.00    +0.000 A 
ATOM      3  C   UNL     1      10.731  15.402  41.508  0.00  0.00    +0.000 C 
ATOM      4  C   UNL     1      11.947  17.690  42.829  0.00  0.00    +0.000 A 
ATOM      5  C   UNL     1      12.360  16.452  44.860  0.00  0.00    +0.000 A 
ATOM      6  C   UNL     1      11.187  16.567  40.608  0.00  0.00    +0.000 C 
ATOM      7  C   UNL     1      12.200  18.877  43.526  0.00  0.00    +0.000 A 
ATOM      8  C   UNL     1      11.667  17.768  41.410  0.00  0.00    +0.000 C 
ATOM      9  C   UNL     1      12.636  17.637  45.536  0.00  0.00    +0.000 A 
ATOM     10  C   UNL     1      12.536  18.854  44.874  0.00  0.00    +0.000 A 
ENDROOT
BRANCH   1  11
ATOM     11  C   UNL     1      12.834  14.651  42.753  0.00  0.00    +0.000 A 
ATOM     12  C   UNL     1      13.013  13.256  42.681  0.00  0.00    +0.000 A 
ATOM     13  C   UNL     1      14.000  15.443  42.688  0.00  0.00    +0.000 A 
ATOM     14  C   UNL     1      14.277  12.689  42.534  0.00  0.00    +0.000 A 
ATOM     15  C   UNL     1      15.263  14.875  42.546  0.00  0.00    +0.000 A 
ATOM     16  C   UNL     1      15.405  13.497  42.460  0.00  0.00    +0.000 A 
ENDBRANCH   1  11
BRANCH   8  17
ATOM     17  C   UNL     1      12.417  18.671  40.502  0.00  0.00    +0.000 C 
ATOM     18  O   UNL     1      11.902  19.464  39.734  0.00  0.00    +0.000 OA
BRANCH  17  19
ATOM     19  O   UNL     1      13.744  18.390  40.480  0.00  0.00    +0.000 OA
BRANCH  19  20
ATOM     20  C   UNL     1      14.693  19.213  41.212  0.00  0.00    +0.000 C 
ATOM     21  C   UNL     1      15.929  18.358  41.611  0.00  0.00    +0.000 C 
ATOM     22  C   UNL     1      15.090  20.417  40.318  0.00  0.00    +0.000 C 
ATOM     23  C   UNL     1      17.156  19.245  41.979  0.00  0.00    +0.000 C 
ATOM     24  C   UNL     1      16.391  21.109  40.821  0.00  0.00    +0.000 C 
ATOM     25  N   UNL     1      17.510  20.148  40.866  0.00  0.00    +0.000 NA
ATOM     26  C   UNL     1      16.799  20.265  43.082  0.00  0.00    +0.000 C 
ATOM     27  C   UNL     1      16.281  21.505  42.311  0.00  0.00    +0.000 C 
ATOM     28  C   UNL     1      17.939  19.535  39.587  0.00  0.00    +0.000 C 
ENDBRANCH  19  20
ENDBRANCH  17  19
ENDBRANCH   8  17
BRANCH   1  30
ATOM     29  O   UNL     1      10.744  13.553  44.418  0.00  0.00    +0.000 OA
ATOM     30  C   UNL     1      10.467  14.375  43.560  0.00  0.00    +0.000 C 
BRANCH  30  31
ATOM     31  O   UNL     1       9.184  14.583  43.177  0.00  0.00    +0.000 OA
BRANCH  31  32
ATOM     32  C   UNL     1       8.107  13.637  43.432  0.00  0.00    +0.000 C 
ATOM     33  C   UNL     1       6.760  14.377  43.696  0.00  0.00    +0.000 C 
ATOM     34  C   UNL     1       8.042  12.721  42.178  0.00  0.00    +0.000 C 
ATOM     35  C   UNL     1       5.517  13.494  43.377  0.00  0.00    +0.000 C 
ATOM     36  C   UNL     1       6.667  12.014  42.012  0.00  0.00    +0.000 C 
ATOM     37  N   UNL     1       5.569  12.998  41.988  0.00  0.00    +0.000 NA
ATOM     38  C   UNL     1       5.543  12.171  44.173  0.00  0.00    +0.000 C 
ATOM     39  C   UNL     1       6.313  11.186  43.265  0.00  0.00    +0.000 C 
ATOM     40  C   UNL     1       5.576  14.009  40.903  0.00  0.00    +0.000 C 
ENDBRANCH  31  32
ENDBRANCH  30  31
ENDBRANCH   1  30
TORSDOF 7
ENDMDL
MODEL 17
REMARK VINA RESULT:    -5.320      1.553      3.350
REMARK INTER + INTRA:         -10.029
REMARK INTER:                  -8.456
REMARK INTRA:                  -1.573
REMARK UNBOUND:                -2.532
REMARK  Name = opt71.pdb
REMARK  9 active torsions:
REMARK  status: ('A' for Active; 'I' for Inactive)
REMARK    1  A    between atoms: C_2  and  O_3
REMARK    2  A    between atoms: C_2  and  C_4
REMARK    3  A    between atoms: O_3  and  C_5
REMARK    4  A    between atoms: C_4  and  C_7
REMARK    5  A    between atoms: C_19  and  C_27
REMARK    6  A    between atoms: N_23  and  C_29
REMARK    7  A    between atoms: C_27  and  O_31
REMARK    8  A    between atoms: O_31  and  C_32
REMARK    9  A    between atoms: N_37  and  C_40
REMARK                            x       y       z     vdW  Elec       q    Type
REMARK                         _______ _______ _______ _____ _____    ______ ____
ROOT
ATOM      1  C   UNL     1      11.162  17.640  43.250  0.00  0.00    +0.000 C 
ATOM      2  C   UNL     1      11.889  16.367  43.400  0.00  0.00    +0.000 A 
ATOM      3  C   UNL     1      11.455  18.750  44.266  0.00  0.00    +0.000 C 
ATOM      4  C   UNL     1      12.980  16.273  44.291  0.00  0.00    +0.000 A 
ATOM      5  C   UNL     1      11.477  15.190  42.743  0.00  0.00    +0.000 A 
ATOM      6  C   UNL     1      12.897  18.822  44.806  0.00  0.00    +0.000 C 
ATOM      7  C   UNL     1      13.533  15.024  44.595  0.00  0.00    +0.000 A 
ATOM      8  C   UNL     1      13.547  17.451  44.916  0.00  0.00    +0.000 C 
ATOM      9  C   UNL     1      12.053  13.957  43.034  0.00  0.00    +0.000 A 
ATOM     10  C   UNL     1      13.068  13.870  43.977  0.00  0.00    +0.000 A 
ENDROOT
BRANCH   1  11
ATOM     11  C   UNL     1      11.675  17.859  41.880  0.00  0.00    +0.000 A 
ATOM     12  C   UNL     1      10.966  17.377  40.763  0.00  0.00    +0.000 A 
ATOM     13  C   UNL     1      12.850  18.593  41.615  0.00  0.00    +0.000 A 
ATOM     14  C   UNL     1      11.396  17.629  39.461  0.00  0.00    +0.000 A 
ATOM     15  C   UNL     1      13.282  18.840  40.314  0.00  0.00    +0.000 A 
ATOM     16  C   UNL     1      12.551  18.366  39.233  0.00  0.00    +0.000 A 
ENDBRANCH   1  11
BRANCH   8  17
ATOM     17  C   UNL     1      15.010  17.635  45.079  0.00  0.00    +0.000 C 
ATOM     18  O   UNL     1      15.537  18.182  46.031  0.00  0.00    +0.000 OA
BRANCH  17  19
ATOM     19  O   UNL     1      15.698  17.296  43.959  0.00  0.00    +0.000 OA
BRANCH  19  20
ATOM     20  C   UNL     1      17.027  16.713  44.050  0.00  0.00    +0.000 C 
ATOM     21  C   UNL     1      16.914  15.175  44.245  0.00  0.00    +0.000 C 
ATOM     22  C   UNL     1      17.809  17.073  42.759  0.00  0.00    +0.000 C 
ATOM     23  C   UNL     1      18.244  14.443  43.897  0.00  0.00    +0.000 C 
ATOM     24  C   UNL     1      19.059  16.164  42.564  0.00  0.00    +0.000 C 
ATOM     25  N   UNL     1      18.668  14.743  42.514  0.00  0.00    +0.000 NA
ATOM     26  C   UNL     1      19.429  15.025  44.699  0.00  0.00    +0.000 C 
ATOM     27  C   UNL     1      19.967  16.178  43.815  0.00  0.00    +0.000 C 
ATOM     28  C   UNL     1      17.777  14.315  41.410  0.00  0.00    +0.000 C 
ENDBRANCH  19  20
ENDBRANCH  17  19
ENDBRANCH   8  17
BRANCH   1  30
ATOM     29  O   UNL     1       8.920  18.519  42.995  0.00  0.00    +0.000 OA
ATOM     30  C   UNL     1       9.656  17.618  43.362  0.00  0.00    +0.000 C 
BRANCH  30  31
ATOM     31  O   UNL     1       9.157  16.488  43.920  0.00  0.00    +0.000 OA
BRANCH  31  32
ATOM     32  C   UNL     1       7.955  15.821  43.442  0.00  0.00    +0.000 C 
ATOM     33  C   UNL     1       8.138  15.312  41.979  0.00  0.00    +0.000 C 
ATOM     34  C   UNL     1       7.689  14.661  44.441  0.00  0.00    +0.000 C 
ATOM     35  C   UNL     1       7.196  14.120  41.636  0.00  0.00    +0.000 C 
ATOM     36  C   UNL     1       6.800  13.535  43.844  0.00  0.00    +0.000 C 
ATOM     37  N   UNL     1       7.382  13.013  42.593  0.00  0.00    +0.000 NA
ATOM     38  C   UNL     1       5.714  14.483  41.873  0.00  0.00    +0.000 C 
ATOM     39  C   UNL     1       5.451  14.096  43.347  0.00  0.00    +0.000 C 
ATOM     40  C   UNL     1       8.728  12.394  42.667  0.00  0.00    +0.000 C 
ENDBRANCH  31  32
ENDBRANCH  30  31
ENDBRANCH   1  30
TORSDOF 7
ENDMDL
MODEL 18
REMARK VINA RESULT:    -4.951      2.859      4.592
REMARK INTER + INTRA:          -9.509
REMARK INTER:                  -8.506
REMARK INTRA:                  -1.003
REMARK UNBOUND:                -2.532
REMARK  Name = opt71.pdb
REMARK  9 active torsions:
REMARK  status: ('A' for Active; 'I' for Inactive)
REMARK    1  A    between atoms: C_2  and  O_3
REMARK    2  A    between atoms: C_2  and  C_4
REMARK    3  A    between atoms: O_3  and  C_5
REMARK    4  A    between atoms: C_4  and  C_7
REMARK    5  A    between atoms: C_19  and  C_27
REMARK    6  A    between atoms: N_23  and  C_29
REMARK    7  A    between atoms: C_27  and  O_31
REMARK    8  A    between atoms: O_31  and  C_32
REMARK    9  A    between atoms: N_37  and  C_40
REMARK                            x       y       z     vdW  Elec       q    Type
REMARK                         _______ _______ _______ _____ _____    ______ ____
ROOT
ATOM      1  C   UNL     1      10.165  15.362  42.093  0.00  0.00    +0.000 C 
ATOM      2  C   UNL     1      10.867  16.279  43.010  0.00  0.00    +0.000 A 
ATOM      3  C   UNL     1      10.942  14.150  41.568  0.00  0.00    +0.000 C 
ATOM      4  C   UNL     1      12.113  15.913  43.563  0.00  0.00    +0.000 A 
ATOM      5  C   UNL     1      10.377  17.570  43.294  0.00  0.00    +0.000 A 
ATOM      6  C   UNL     1      11.977  13.530  42.527  0.00  0.00    +0.000 C 
ATOM      7  C   UNL     1      12.878  16.858  44.256  0.00  0.00    +0.000 A 
ATOM      8  C   UNL     1      12.634  14.569  43.424  0.00  0.00    +0.000 C 
ATOM      9  C   UNL     1      11.136  18.492  44.008  0.00  0.00    +0.000 A 
ATOM     10  C   UNL     1      12.398  18.143  44.472  0.00  0.00    +0.000 A 
ENDROOT
BRANCH   1  11
ATOM     11  C   UNL     1       9.097  15.075  43.078  0.00  0.00    +0.000 A 
ATOM     12  C   UNL     1       8.244  16.100  43.529  0.00  0.00    +0.000 A 
ATOM     13  C   UNL     1       8.844  13.778  43.570  0.00  0.00    +0.000 A 
ATOM     14  C   UNL     1       7.190  15.840  44.403  0.00  0.00    +0.000 A 
ATOM     15  C   UNL     1       7.794  13.520  44.448  0.00  0.00    +0.000 A 
ATOM     16  C   UNL     1       6.958  14.549  44.860  0.00  0.00    +0.000 A 
ENDBRANCH   1  11
BRANCH   8  17
ATOM     17  C   UNL     1      13.318  13.864  44.537  0.00  0.00    +0.000 C 
ATOM     18  O   UNL     1      12.776  13.512  45.569  0.00  0.00    +0.000 OA
BRANCH  17  19
ATOM     19  O   UNL     1      14.663  13.819  44.366  0.00  0.00    +0.000 OA
BRANCH  19  20
ATOM     20  C   UNL     1      15.471  15.022  44.491  0.00  0.00    +0.000 C 
ATOM     21  C   UNL     1      16.543  14.821  45.599  0.00  0.00    +0.000 C 
ATOM     22  C   UNL     1      16.117  15.324  43.113  0.00  0.00    +0.000 C 
ATOM     23  C   UNL     1      17.705  15.851  45.479  0.00  0.00    +0.000 C 
ATOM     24  C   UNL     1      17.312  16.315  43.237  0.00  0.00    +0.000 C 
ATOM     25  N   UNL     1      18.341  15.782  44.148  0.00  0.00    +0.000 NA
ATOM     26  C   UNL     1      17.169  17.300  45.473  0.00  0.00    +0.000 C 
ATOM     27  C   UNL     1      16.899  17.607  43.979  0.00  0.00    +0.000 C 
ATOM     28  C   UNL     1      19.007  14.514  43.765  0.00  0.00    +0.000 C 
ENDBRANCH  19  20
ENDBRANCH  17  19
ENDBRANCH   8  17
BRANCH   1  30
ATOM     29  O   UNL     1      10.341  16.594  40.017  0.00  0.00    +0.000 OA
ATOM     30  C   UNL     1       9.674  15.911  40.776  0.00  0.00    +0.000 C 
BRANCH  30  31
ATOM     31  O   UNL     1       8.392  15.584  40.481  0.00  0.00    +0.000 OA
BRANCH  31  32
ATOM     32  C   UNL     1       7.411  16.544  39.996  0.00  0.00    +0.000 C 
ATOM     33  C   UNL     1       7.698  17.971  40.555  0.00  0.00    +0.000 C 
ATOM     34  C   UNL     1       7.495  16.490  38.446  0.00  0.00    +0.000 C 
ATOM     35  C   UNL     1       7.114  19.099  39.652  0.00  0.00    +0.000 C 
ATOM     36  C   UNL     1       6.939  17.769  37.760  0.00  0.00    +0.000 C 
ATOM     37  N   UNL     1       7.617  18.976  38.271  0.00  0.00    +0.000 NA
ATOM     38  C   UNL     1       5.595  18.924  39.440  0.00  0.00    +0.000 C 
ATOM     39  C   UNL     1       5.478  18.035  38.181  0.00  0.00    +0.000 C 
ATOM     40  C   UNL     1       9.082  19.079  38.067  0.00  0.00    +0.000 C 
ENDBRANCH  31  32
ENDBRANCH  30  31
ENDBRANCH   1  30
TORSDOF 7
ENDMDL
