MODEL 1
REMARK VINA RESULT:    -6.550      0.000      0.000
REMARK INTER + INTRA:         -10.049
REMARK INTER:                  -9.039
REMARK INTRA:                  -1.010
REMARK UNBOUND:                -1.010
REMARK  Name = opt45.pdb
REMARK  10 active torsions:
REMARK  status: ('A' for Active; 'I' for Inactive)
REMARK    1  A    between atoms: C_5  and  O_9
REMARK    2  A    between atoms: C_7  and  O_13
REMARK    3  A    between atoms: C_12  and  C_17
REMARK    4  A    between atoms: C_16  and  C_19
REMARK    5  A    between atoms: C_19  and  O_22
REMARK    6  A    between atoms: C_21  and  O_24
REMARK    7  A    between atoms: C_23  and  C_27
REMARK    8  A    between atoms: C_25  and  O_28
REMARK    9  A    between atoms: C_26  and  O_29
REMARK   10  A    between atoms: C_27  and  O_30
REMARK                            x       y       z     vdW  Elec       q    Type
REMARK                         _______ _______ _______ _____ _____    ______ ____
ROOT
ATOM      1  O   UNL     1      15.216  16.252  41.564  0.00  0.00    +0.000 OA
ATOM      2  C   UNL     1      14.607  15.921  42.565  0.00  0.00    +0.000 C 
ATOM      3  C   UNL     1      13.194  16.349  42.801  0.00  0.00    +0.000 A 
ATOM      4  C   UNL     1      15.267  15.173  43.677  0.00  0.00    +0.000 A 
ATOM      5  C   UNL     1      12.528  17.178  41.894  0.00  0.00    +0.000 A 
ATOM      6  C   UNL     1      12.539  15.917  43.961  0.00  0.00    +0.000 A 
ATOM      7  C   UNL     1      16.649  14.928  43.656  0.00  0.00    +0.000 A 
ATOM      8  C   UNL     1      14.487  14.718  44.752  0.00  0.00    +0.000 A 
ATOM      9  C   UNL     1      11.202  17.533  42.111  0.00  0.00    +0.000 A 
ATOM     10  C   UNL     1      11.278  16.447  44.261  0.00  0.00    +0.000 A 
ATOM     11  C   UNL     1      13.031  14.745  44.679  0.00  0.00    +0.000 C 
ATOM     12  C   UNL     1      17.250  14.207  44.684  0.00  0.00    +0.000 A 
ATOM     13  C   UNL     1      15.112  14.001  45.783  0.00  0.00    +0.000 A 
ATOM     14  C   UNL     1      10.561  17.162  43.295  0.00  0.00    +0.000 A 
ATOM     15  C   UNL     1      16.480  13.743  45.745  0.00  0.00    +0.000 A 
ENDROOT
BRANCH  11  16
ATOM     16  C   UNL     1      12.319  13.392  44.664  0.00  0.00    +0.000 C 
ATOM     17  O   UNL     1      10.887  13.416  44.981  0.00  0.00    +0.000 OA
ATOM     18  C   UNL     1      12.552  12.615  43.347  0.00  0.00    +0.000 C 
ATOM     19  C   UNL     1       9.886  13.718  43.953  0.00  0.00    +0.000 C 
ATOM     20  C   UNL     1      11.628  13.141  42.229  0.00  0.00    +0.000 C 
ATOM     21  C   UNL     1      10.141  12.991  42.617  0.00  0.00    +0.000 C 
BRANCH  21  22
ATOM     22  O   UNL     1       9.362  13.630  41.595  0.00  0.00    +0.000 OA
ATOM     23  H   UNL     1       9.107  14.525  41.905  0.00  0.00    +0.000 HD
ENDBRANCH  21  22
BRANCH  18  24
ATOM     24  O   UNL     1      12.321  11.220  43.572  0.00  0.00    +0.000 OA
ATOM     25  H   UNL     1      11.749  11.128  44.356  0.00  0.00    +0.000 HD
ENDBRANCH  18  24
BRANCH  20  26
ATOM     26  O   UNL     1      11.898  12.437  41.023  0.00  0.00    +0.000 OA
ATOM     27  H   UNL     1      12.303  13.081  40.421  0.00  0.00    +0.000 HD
ENDBRANCH  20  26
BRANCH  19  28
ATOM     28  C   UNL     1       8.477  13.500  44.544  0.00  0.00    +0.000 C 
BRANCH  28  29
ATOM     29  O   UNL     1       7.466  13.909  43.628  0.00  0.00    +0.000 OA
ATOM     30  H   UNL     1       7.185  13.115  43.141  0.00  0.00    +0.000 HD
ENDBRANCH  28  29
ENDBRANCH  19  28
ENDBRANCH  11  16
BRANCH   7  31
ATOM     31  O   UNL     1      17.431  15.402  42.640  0.00  0.00    +0.000 OA
ATOM     32  H   UNL     1      18.089  14.688  42.411  0.00  0.00    +0.000 HD
ENDBRANCH   7  31
BRANCH   5  33
ATOM     33  O   UNL     1      13.134  17.579  40.741  0.00  0.00    +0.000 OA
ATOM     34  H   UNL     1      12.497  17.383  40.000  0.00  0.00    +0.000 HD
ENDBRANCH   5  33
BRANCH  14  35
ATOM     35  C   UNL     1       9.049  17.307  43.465  0.00  0.00    +0.000 C 
BRANCH  35  36
ATOM     36  O   UNL     1       8.299  16.491  42.568  0.00  0.00    +0.000 OA
ATOM     37  H   UNL     1       8.729  16.521  41.701  0.00  0.00    +0.000 HD
ENDBRANCH  35  36
ENDBRANCH  14  35
TORSDOF 10
ENDMDL
MODEL 2
REMARK VINA RESULT:    -6.501      1.774      6.169
REMARK INTER + INTRA:          -9.981
REMARK INTER:                  -9.300
REMARK INTRA:                  -0.681
REMARK UNBOUND:                -1.010
REMARK  Name = opt45.pdb
REMARK  10 active torsions:
REMARK  status: ('A' for Active; 'I' for Inactive)
REMARK    1  A    between atoms: C_5  and  O_9
REMARK    2  A    between atoms: C_7  and  O_13
REMARK    3  A    between atoms: C_12  and  C_17
REMARK    4  A    between atoms: C_16  and  C_19
REMARK    5  A    between atoms: C_19  and  O_22
REMARK    6  A    between atoms: C_21  and  O_24
REMARK    7  A    between atoms: C_23  and  C_27
REMARK    8  A    between atoms: C_25  and  O_28
REMARK    9  A    between atoms: C_26  and  O_29
REMARK   10  A    between atoms: C_27  and  O_30
REMARK                            x       y       z     vdW  Elec       q    Type
REMARK                         _______ _______ _______ _____ _____    ______ ____
ROOT
ATOM      1  O   UNL     1      11.521  12.265  41.122  0.00  0.00    +0.000 OA
ATOM      2  C   UNL     1      11.536  12.767  42.231  0.00  0.00    +0.000 C 
ATOM      3  C   UNL     1      12.815  13.007  42.966  0.00  0.00    +0.000 A 
ATOM      4  C   UNL     1      10.277  13.062  42.980  0.00  0.00    +0.000 A 
ATOM      5  C   UNL     1      14.046  12.629  42.420  0.00  0.00    +0.000 A 
ATOM      6  C   UNL     1      12.770  13.609  44.230  0.00  0.00    +0.000 A 
ATOM      7  C   UNL     1       9.030  12.659  42.474  0.00  0.00    +0.000 A 
ATOM      8  C   UNL     1      10.353  13.746  44.203  0.00  0.00    +0.000 A 
ATOM      9  C   UNL     1      15.227  12.896  43.101  0.00  0.00    +0.000 A 
ATOM     10  C   UNL     1      13.947  13.685  44.984  0.00  0.00    +0.000 A 
ATOM     11  C   UNL     1      11.596  14.382  44.623  0.00  0.00    +0.000 C 
ATOM     12  C   UNL     1       7.862  12.961  43.166  0.00  0.00    +0.000 A 
ATOM     13  C   UNL     1       9.165  14.034  44.889  0.00  0.00    +0.000 A 
ATOM     14  C   UNL     1      15.188  13.436  44.389  0.00  0.00    +0.000 A 
ATOM     15  C   UNL     1       7.930  13.649  44.372  0.00  0.00    +0.000 A 
ENDROOT
BRANCH  11  16
ATOM     16  C   UNL     1      11.589  15.909  44.714  0.00  0.00    +0.000 C 
ATOM     17  O   UNL     1      12.865  16.537  45.075  0.00  0.00    +0.000 OA
ATOM     18  C   UNL     1      11.019  16.575  43.439  0.00  0.00    +0.000 C 
ATOM     19  C   UNL     1      13.891  16.811  44.065  0.00  0.00    +0.000 C 
ATOM     20  C   UNL     1      12.082  16.621  42.322  0.00  0.00    +0.000 C 
ATOM     21  C   UNL     1      13.324  17.423  42.767  0.00  0.00    +0.000 C 
BRANCH  21  22
ATOM     22  O   UNL     1      14.312  17.296  41.734  0.00  0.00    +0.000 OA
ATOM     23  H   UNL     1      14.428  16.345  41.524  0.00  0.00    +0.000 HD
ENDBRANCH  21  22
BRANCH  18  24
ATOM     24  O   UNL     1      10.568  17.896  43.755  0.00  0.00    +0.000 OA
ATOM     25  H   UNL     1      10.705  18.045  44.709  0.00  0.00    +0.000 HD
ENDBRANCH  18  24
BRANCH  20  26
ATOM     26  O   UNL     1      11.514  17.198  41.153  0.00  0.00    +0.000 OA
ATOM     27  H   UNL     1      11.984  16.802  40.403  0.00  0.00    +0.000 HD
ENDBRANCH  20  26
BRANCH  19  28
ATOM     28  C   UNL     1      15.031  17.622  44.713  0.00  0.00    +0.000 C 
BRANCH  28  29
ATOM     29  O   UNL     1      16.258  17.437  44.013  0.00  0.00    +0.000 OA
ATOM     30  H   UNL     1      16.034  17.325  43.072  0.00  0.00    +0.000 HD
ENDBRANCH  28  29
ENDBRANCH  19  28
ENDBRANCH  11  16
BRANCH   7  31
ATOM     31  O   UNL     1       8.941  11.952  41.307  0.00  0.00    +0.000 OA
ATOM     32  H   UNL     1       8.307  12.439  40.711  0.00  0.00    +0.000 HD
ENDBRANCH   7  31
BRANCH   5  33
ATOM     33  O   UNL     1      14.116  12.076  41.177  0.00  0.00    +0.000 OA
ATOM     34  H   UNL     1      13.212  12.175  40.769  0.00  0.00    +0.000 HD
ENDBRANCH   5  33
BRANCH  14  35
ATOM     35  C   UNL     1      16.447  13.977  45.068  0.00  0.00    +0.000 C 
BRANCH  35  36
ATOM     36  O   UNL     1      16.659  13.442  46.371  0.00  0.00    +0.000 OA
ATOM     37  H   UNL     1      17.106  12.588  46.279  0.00  0.00    +0.000 HD
ENDBRANCH  35  36
ENDBRANCH  14  35
TORSDOF 10
ENDMDL
MODEL 3
REMARK VINA RESULT:    -6.175      2.224      5.213
REMARK INTER + INTRA:          -9.532
REMARK INTER:                  -9.432
REMARK INTRA:                  -0.099
REMARK UNBOUND:                -1.010
REMARK  Name = opt45.pdb
REMARK  10 active torsions:
REMARK  status: ('A' for Active; 'I' for Inactive)
REMARK    1  A    between atoms: C_5  and  O_9
REMARK    2  A    between atoms: C_7  and  O_13
REMARK    3  A    between atoms: C_12  and  C_17
REMARK    4  A    between atoms: C_16  and  C_19
REMARK    5  A    between atoms: C_19  and  O_22
REMARK    6  A    between atoms: C_21  and  O_24
REMARK    7  A    between atoms: C_23  and  C_27
REMARK    8  A    between atoms: C_25  and  O_28
REMARK    9  A    between atoms: C_26  and  O_29
REMARK   10  A    between atoms: C_27  and  O_30
REMARK                            x       y       z     vdW  Elec       q    Type
REMARK                         _______ _______ _______ _____ _____    ______ ____
ROOT
ATOM      1  O   UNL     1       8.344  18.039  42.739  0.00  0.00    +0.000 OA
ATOM      2  C   UNL     1       8.968  17.056  43.091  0.00  0.00    +0.000 C 
ATOM      3  C   UNL     1       8.340  15.700  43.132  0.00  0.00    +0.000 A 
ATOM      4  C   UNL     1      10.361  17.155  43.623  0.00  0.00    +0.000 A 
ATOM      5  C   UNL     1       6.994  15.516  42.799  0.00  0.00    +0.000 A 
ATOM      6  C   UNL     1       9.116  14.602  43.525  0.00  0.00    +0.000 A 
ATOM      7  C   UNL     1      10.957  18.407  43.844  0.00  0.00    +0.000 A 
ATOM      8  C   UNL     1      11.071  15.978  43.904  0.00  0.00    +0.000 A 
ATOM      9  C   UNL     1       6.438  14.243  42.805  0.00  0.00    +0.000 A 
ATOM     10  C   UNL     1       8.488  13.366  43.718  0.00  0.00    +0.000 A 
ATOM     11  C   UNL     1      10.572  14.683  43.457  0.00  0.00    +0.000 C 
ATOM     12  C   UNL     1      12.264  18.489  44.314  0.00  0.00    +0.000 A 
ATOM     13  C   UNL     1      12.385  16.080  44.384  0.00  0.00    +0.000 A 
ATOM     14  C   UNL     1       7.185  13.153  43.257  0.00  0.00    +0.000 A 
ATOM     15  C   UNL     1      12.977  17.326  44.583  0.00  0.00    +0.000 A 
ENDROOT
BRANCH  11  16
ATOM     16  C   UNL     1      11.404  13.952  42.402  0.00  0.00    +0.000 C 
ATOM     17  O   UNL     1      12.850  13.901  42.647  0.00  0.00    +0.000 OA
ATOM     18  C   UNL     1      10.871  12.530  42.108  0.00  0.00    +0.000 C 
ATOM     19  C   UNL     1      13.439  12.878  43.516  0.00  0.00    +0.000 C 
ATOM     20  C   UNL     1      11.332  11.536  43.195  0.00  0.00    +0.000 C 
ATOM     21  C   UNL     1      12.872  11.464  43.270  0.00  0.00    +0.000 C 
BRANCH  21  22
ATOM     22  O   UNL     1      13.212  10.636  44.390  0.00  0.00    +0.000 OA
ATOM     23  H   UNL     1      14.165  10.754  44.593  0.00  0.00    +0.000 HD
ENDBRANCH  21  22
BRANCH  18  24
ATOM     24  O   UNL     1      11.329  12.108  40.820  0.00  0.00    +0.000 OA
ATOM     25  H   UNL     1      12.167  11.623  40.937  0.00  0.00    +0.000 HD
ENDBRANCH  18  24
BRANCH  20  26
ATOM     26  O   UNL     1      10.790  10.251  42.920  0.00  0.00    +0.000 OA
ATOM     27  H   UNL     1      11.464   9.780  42.404  0.00  0.00    +0.000 HD
ENDBRANCH  20  26
BRANCH  19  28
ATOM     28  C   UNL     1      14.976  12.977  43.439  0.00  0.00    +0.000 C 
BRANCH  28  29
ATOM     29  O   UNL     1      15.574  12.694  44.700  0.00  0.00    +0.000 OA
ATOM     30  H   UNL     1      15.116  11.916  45.064  0.00  0.00    +0.000 HD
ENDBRANCH  28  29
ENDBRANCH  19  28
ENDBRANCH  11  16
BRANCH   7  31
ATOM     31  O   UNL     1      10.265  19.564  43.619  0.00  0.00    +0.000 OA
ATOM     32  H   UNL     1      10.594  19.947  42.759  0.00  0.00    +0.000 HD
ENDBRANCH   7  31
BRANCH   5  33
ATOM     33  O   UNL     1       6.231  16.564  42.379  0.00  0.00    +0.000 OA
ATOM     34  H   UNL     1       6.510  16.764  41.444  0.00  0.00    +0.000 HD
ENDBRANCH   5  33
BRANCH  14  35
ATOM     35  C   UNL     1       6.709  11.715  43.045  0.00  0.00    +0.000 C 
BRANCH  35  36
ATOM     36  O   UNL     1       7.768  10.762  43.063  0.00  0.00    +0.000 OA
ATOM     37  H   UNL     1       8.444  11.071  43.684  0.00  0.00    +0.000 HD
ENDBRANCH  35  36
ENDBRANCH  14  35
TORSDOF 10
ENDMDL
MODEL 4
REMARK VINA RESULT:    -6.141      2.026      6.144
REMARK INTER + INTRA:          -9.484
REMARK INTER:                  -8.408
REMARK INTRA:                  -1.076
REMARK UNBOUND:                -1.010
REMARK  Name = opt45.pdb
REMARK  10 active torsions:
REMARK  status: ('A' for Active; 'I' for Inactive)
REMARK    1  A    between atoms: C_5  and  O_9
REMARK    2  A    between atoms: C_7  and  O_13
REMARK    3  A    between atoms: C_12  and  C_17
REMARK    4  A    between atoms: C_16  and  C_19
REMARK    5  A    between atoms: C_19  and  O_22
REMARK    6  A    between atoms: C_21  and  O_24
REMARK    7  A    between atoms: C_23  and  C_27
REMARK    8  A    between atoms: C_25  and  O_28
REMARK    9  A    between atoms: C_26  and  O_29
REMARK   10  A    between atoms: C_27  and  O_30
REMARK                            x       y       z     vdW  Elec       q    Type
REMARK                         _______ _______ _______ _____ _____    ______ ____
ROOT
ATOM      1  O   UNL     1      12.938  12.354  41.332  0.00  0.00    +0.000 OA
ATOM      2  C   UNL     1      12.827  12.954  42.385  0.00  0.00    +0.000 C 
ATOM      3  C   UNL     1      14.021  13.455  43.132  0.00  0.00    +0.000 A 
ATOM      4  C   UNL     1      11.505  13.120  43.062  0.00  0.00    +0.000 A 
ATOM      5  C   UNL     1      15.318  13.222  42.664  0.00  0.00    +0.000 A 
ATOM      6  C   UNL     1      13.828  14.160  44.328  0.00  0.00    +0.000 A 
ATOM      7  C   UNL     1      10.358  12.484  42.561  0.00  0.00    +0.000 A 
ATOM      8  C   UNL     1      11.422  13.920  44.212  0.00  0.00    +0.000 A 
ATOM      9  C   UNL     1      16.413  13.731  43.352  0.00  0.00    +0.000 A 
ATOM     10  C   UNL     1      14.944  14.486  45.106  0.00  0.00    +0.000 A 
ATOM     11  C   UNL     1      12.535  14.776  44.605  0.00  0.00    +0.000 C 
ATOM     12  C   UNL     1       9.127  12.667  43.183  0.00  0.00    +0.000 A 
ATOM     13  C   UNL     1      10.174  14.085  44.830  0.00  0.00    +0.000 A 
ATOM     14  C   UNL     1      16.235  14.376  44.577  0.00  0.00    +0.000 A 
ATOM     15  C   UNL     1       9.036  13.468  44.316  0.00  0.00    +0.000 A 
ENDROOT
BRANCH  11  16
ATOM     16  C   UNL     1      12.295  16.285  44.543  0.00  0.00    +0.000 C 
ATOM     17  O   UNL     1      13.205  17.115  45.340  0.00  0.00    +0.000 OA
ATOM     18  C   UNL     1      12.237  16.816  43.091  0.00  0.00    +0.000 C 
ATOM     19  C   UNL     1      14.518  17.514  44.824  0.00  0.00    +0.000 C 
ATOM     20  C   UNL     1      13.658  16.993  42.515  0.00  0.00    +0.000 C 
ATOM     21  C   UNL     1      14.481  17.992  43.358  0.00  0.00    +0.000 C 
BRANCH  21  22
ATOM     22  O   UNL     1      15.821  17.988  42.844  0.00  0.00    +0.000 OA
ATOM     23  H   UNL     1      16.088  18.913  42.652  0.00  0.00    +0.000 HD
ENDBRANCH  21  22
BRANCH  18  24
ATOM     24  O   UNL     1      11.530  18.060  43.067  0.00  0.00    +0.000 OA
ATOM     25  H   UNL     1      10.868  18.021  42.353  0.00  0.00    +0.000 HD
ENDBRANCH  18  24
BRANCH  20  26
ATOM     26  O   UNL     1      13.569  17.439  41.168  0.00  0.00    +0.000 OA
ATOM     27  H   UNL     1      12.633  17.640  41.013  0.00  0.00    +0.000 HD
ENDBRANCH  20  26
BRANCH  19  28
ATOM     28  C   UNL     1      15.163  18.512  45.809  0.00  0.00    +0.000 C 
BRANCH  28  29
ATOM     29  O   UNL     1      16.580  18.533  45.666  0.00  0.00    +0.000 OA
ATOM     30  H   UNL     1      16.952  18.691  46.551  0.00  0.00    +0.000 HD
ENDBRANCH  28  29
ENDBRANCH  19  28
ENDBRANCH  11  16
BRANCH   7  31
ATOM     31  O   UNL     1      10.429  11.666  41.468  0.00  0.00    +0.000 OA
ATOM     32  H   UNL     1      11.333  11.244  41.470  0.00  0.00    +0.000 HD
ENDBRANCH   7  31
BRANCH   5  33
ATOM     33  O   UNL     1      15.527  12.572  41.485  0.00  0.00    +0.000 OA
ATOM     34  H   UNL     1      15.697  13.274  40.798  0.00  0.00    +0.000 HD
ENDBRANCH   5  33
BRANCH  14  35
ATOM     35  C   UNL     1      17.366  15.166  45.236  0.00  0.00    +0.000 C 
BRANCH  35  36
ATOM     36  O   UNL     1      17.802  16.281  44.463  0.00  0.00    +0.000 OA
ATOM     37  H   UNL     1      18.658  16.573  44.808  0.00  0.00    +0.000 HD
ENDBRANCH  35  36
ENDBRANCH  14  35
TORSDOF 10
ENDMDL
MODEL 5
REMARK VINA RESULT:    -5.989      2.134      5.661
REMARK INTER + INTRA:          -9.275
REMARK INTER:                  -9.393
REMARK INTRA:                   0.118
REMARK UNBOUND:                -1.010
REMARK  Name = opt45.pdb
REMARK  10 active torsions:
REMARK  status: ('A' for Active; 'I' for Inactive)
REMARK    1  A    between atoms: C_5  and  O_9
REMARK    2  A    between atoms: C_7  and  O_13
REMARK    3  A    between atoms: C_12  and  C_17
REMARK    4  A    between atoms: C_16  and  C_19
REMARK    5  A    between atoms: C_19  and  O_22
REMARK    6  A    between atoms: C_21  and  O_24
REMARK    7  A    between atoms: C_23  and  C_27
REMARK    8  A    between atoms: C_25  and  O_28
REMARK    9  A    between atoms: C_26  and  O_29
REMARK   10  A    between atoms: C_27  and  O_30
REMARK                            x       y       z     vdW  Elec       q    Type
REMARK                         _______ _______ _______ _____ _____    ______ ____
ROOT
ATOM      1  O   UNL     1       9.962  17.375  41.798  0.00  0.00    +0.000 OA
ATOM      2  C   UNL     1      10.762  16.795  42.508  0.00  0.00    +0.000 C 
ATOM      3  C   UNL     1      10.793  15.303  42.597  0.00  0.00    +0.000 A 
ATOM      4  C   UNL     1      11.678  17.532  43.429  0.00  0.00    +0.000 A 
ATOM      5  C   UNL     1       9.878  14.516  41.891  0.00  0.00    +0.000 A 
ATOM      6  C   UNL     1      11.752  14.691  43.415  0.00  0.00    +0.000 A 
ATOM      7  C   UNL     1      11.566  18.922  43.593  0.00  0.00    +0.000 A 
ATOM      8  C   UNL     1      12.657  16.817  44.137  0.00  0.00    +0.000 A 
ATOM      9  C   UNL     1       9.949  13.130  41.955  0.00  0.00    +0.000 A 
ATOM     10  C   UNL     1      11.678  13.309  43.623  0.00  0.00    +0.000 A 
ATOM     11  C   UNL     1      12.950  15.428  43.804  0.00  0.00    +0.000 C 
ATOM     12  C   UNL     1      12.441  19.603  44.433  0.00  0.00    +0.000 A 
ATOM     13  C   UNL     1      13.525  17.519  44.985  0.00  0.00    +0.000 A 
ATOM     14  C   UNL     1      10.857  12.513  42.817  0.00  0.00    +0.000 A 
ATOM     15  C   UNL     1      13.420  18.901  45.127  0.00  0.00    +0.000 A 
ENDROOT
BRANCH  11  16
ATOM     16  C   UNL     1      14.337  15.139  43.226  0.00  0.00    +0.000 C 
ATOM     17  O   UNL     1      15.451  15.880  43.829  0.00  0.00    +0.000 OA
ATOM     18  C   UNL     1      14.664  13.627  43.201  0.00  0.00    +0.000 C 
ATOM     19  C   UNL     1      16.097  15.413  45.060  0.00  0.00    +0.000 C 
ATOM     20  C   UNL     1      15.116  13.141  44.594  0.00  0.00    +0.000 C 
ATOM     21  C   UNL     1      16.376  13.896  45.068  0.00  0.00    +0.000 C 
BRANCH  21  22
ATOM     22  O   UNL     1      16.642  13.489  46.418  0.00  0.00    +0.000 OA
ATOM     23  H   UNL     1      15.919  13.819  46.995  0.00  0.00    +0.000 HD
ENDBRANCH  21  22
BRANCH  18  24
ATOM     24  O   UNL     1      15.686  13.379  42.230  0.00  0.00    +0.000 OA
ATOM     25  H   UNL     1      16.292  14.142  42.223  0.00  0.00    +0.000 HD
ENDBRANCH  18  24
BRANCH  20  26
ATOM     26  O   UNL     1      15.366  11.742  44.547  0.00  0.00    +0.000 OA
ATOM     27  H   UNL     1      14.535  11.311  44.801  0.00  0.00    +0.000 HD
ENDBRANCH  20  26
BRANCH  19  28
ATOM     28  C   UNL     1      17.329  16.295  45.346  0.00  0.00    +0.000 C 
BRANCH  28  29
ATOM     29  O   UNL     1      18.539  15.568  45.155  0.00  0.00    +0.000 OA
ATOM     30  H   UNL     1      18.290  14.674  44.861  0.00  0.00    +0.000 HD
ENDBRANCH  28  29
ENDBRANCH  19  28
ENDBRANCH  11  16
BRANCH   7  31
ATOM     31  O   UNL     1      10.590  19.628  42.946  0.00  0.00    +0.000 OA
ATOM     32  H   UNL     1      10.203  19.031  42.247  0.00  0.00    +0.000 HD
ENDBRANCH   7  31
BRANCH   5  33
ATOM     33  O   UNL     1       8.962  15.089  41.061  0.00  0.00    +0.000 OA
ATOM     34  H   UNL     1       8.274  14.393  40.870  0.00  0.00    +0.000 HD
ENDBRANCH   5  33
BRANCH  14  35
ATOM     35  C   UNL     1      11.144  11.013  42.736  0.00  0.00    +0.000 C 
BRANCH  35  36
ATOM     36  O   UNL     1      12.149  10.580  43.649  0.00  0.00    +0.000 OA
ATOM     37  H   UNL     1      12.035   9.630  43.797  0.00  0.00    +0.000 HD
ENDBRANCH  35  36
ENDBRANCH  14  35
TORSDOF 10
ENDMDL
MODEL 6
REMARK VINA RESULT:    -5.989      1.849      6.487
REMARK INTER + INTRA:          -9.275
REMARK INTER:                  -8.144
REMARK INTRA:                  -1.131
REMARK UNBOUND:                -1.010
REMARK  Name = opt45.pdb
REMARK  10 active torsions:
REMARK  status: ('A' for Active; 'I' for Inactive)
REMARK    1  A    between atoms: C_5  and  O_9
REMARK    2  A    between atoms: C_7  and  O_13
REMARK    3  A    between atoms: C_12  and  C_17
REMARK    4  A    between atoms: C_16  and  C_19
REMARK    5  A    between atoms: C_19  and  O_22
REMARK    6  A    between atoms: C_21  and  O_24
REMARK    7  A    between atoms: C_23  and  C_27
REMARK    8  A    between atoms: C_25  and  O_28
REMARK    9  A    between atoms: C_26  and  O_29
REMARK   10  A    between atoms: C_27  and  O_30
REMARK                            x       y       z     vdW  Elec       q    Type
REMARK                         _______ _______ _______ _____ _____    ______ ____
ROOT
ATOM      1  O   UNL     1       9.509  11.317  42.646  0.00  0.00    +0.000 OA
ATOM      2  C   UNL     1       9.475  12.370  43.256  0.00  0.00    +0.000 C 
ATOM      3  C   UNL     1      10.725  13.096  43.638  0.00  0.00    +0.000 A 
ATOM      4  C   UNL     1       8.195  12.942  43.770  0.00  0.00    +0.000 A 
ATOM      5  C   UNL     1      11.987  12.571  43.338  0.00  0.00    +0.000 A 
ATOM      6  C   UNL     1      10.622  14.315  44.320  0.00  0.00    +0.000 A 
ATOM      7  C   UNL     1       6.994  12.221  43.668  0.00  0.00    +0.000 A 
ATOM      8  C   UNL     1       8.204  14.214  44.364  0.00  0.00    +0.000 A 
ATOM      9  C   UNL     1      13.136  13.280  43.666  0.00  0.00    +0.000 A 
ATOM     10  C   UNL     1      11.787  14.910  44.817  0.00  0.00    +0.000 A 
ATOM     11  C   UNL     1       9.377  15.074  44.263  0.00  0.00    +0.000 C 
ATOM     12  C   UNL     1       5.803  12.774  44.127  0.00  0.00    +0.000 A 
ATOM     13  C   UNL     1       6.994  14.751  44.827  0.00  0.00    +0.000 A 
ATOM     14  C   UNL     1      13.046  14.463  44.402  0.00  0.00    +0.000 A 
ATOM     15  C   UNL     1       5.804  14.039  44.704  0.00  0.00    +0.000 A 
ENDROOT
BRANCH  11  16
ATOM     16  C   UNL     1       9.216  16.361  43.453  0.00  0.00    +0.000 C 
ATOM     17  O   UNL     1      10.163  17.438  43.763  0.00  0.00    +0.000 OA
ATOM     18  C   UNL     1       9.197  16.103  41.928  0.00  0.00    +0.000 C 
ATOM     19  C   UNL     1      11.499  17.474  43.160  0.00  0.00    +0.000 C 
ATOM     20  C   UNL     1      10.629  15.912  41.386  0.00  0.00    +0.000 C 
ATOM     21  C   UNL     1      11.497  17.161  41.649  0.00  0.00    +0.000 C 
BRANCH  21  22
ATOM     22  O   UNL     1      12.838  16.848  41.247  0.00  0.00    +0.000 OA
ATOM     23  H   UNL     1      13.356  17.680  41.199  0.00  0.00    +0.000 HD
ENDBRANCH  21  22
BRANCH  18  24
ATOM     24  O   UNL     1       8.556  17.200  41.268  0.00  0.00    +0.000 OA
ATOM     25  H   UNL     1       9.230  17.687  40.761  0.00  0.00    +0.000 HD
ENDBRANCH  18  24
BRANCH  20  26
ATOM     26  O   UNL     1      10.573  15.633  39.992  0.00  0.00    +0.000 OA
ATOM     27  H   UNL     1       9.710  15.955  39.689  0.00  0.00    +0.000 HD
ENDBRANCH  20  26
BRANCH  19  28
ATOM     28  C   UNL     1      12.187  18.801  43.540  0.00  0.00    +0.000 C 
BRANCH  28  29
ATOM     29  O   UNL     1      13.603  18.699  43.421  0.00  0.00    +0.000 OA
ATOM     30  H   UNL     1      13.852  17.815  43.741  0.00  0.00    +0.000 HD
ENDBRANCH  28  29
ENDBRANCH  19  28
ENDBRANCH  11  16
BRANCH   7  31
ATOM     31  O   UNL     1       6.975  10.963  43.134  0.00  0.00    +0.000 OA
ATOM     32  H   UNL     1       7.715  10.447  43.558  0.00  0.00    +0.000 HD
ENDBRANCH   7  31
BRANCH   5  33
ATOM     33  O   UNL     1      12.110  11.406  42.643  0.00  0.00    +0.000 OA
ATOM     34  H   UNL     1      12.260  11.656  41.690  0.00  0.00    +0.000 HD
ENDBRANCH   5  33
BRANCH  14  35
ATOM     35  C   UNL     1      14.245  15.397  44.565  0.00  0.00    +0.000 C 
BRANCH  35  36
ATOM     36  O   UNL     1      14.716  15.932  43.331  0.00  0.00    +0.000 OA
ATOM     37  H   UNL     1      15.678  16.020  43.386  0.00  0.00    +0.000 HD
ENDBRANCH  35  36
ENDBRANCH  14  35
TORSDOF 10
ENDMDL
MODEL 7
REMARK VINA RESULT:    -5.838      2.301      3.301
REMARK INTER + INTRA:          -9.066
REMARK INTER:                  -8.166
REMARK INTRA:                  -0.900
REMARK UNBOUND:                -1.010
REMARK  Name = opt45.pdb
REMARK  10 active torsions:
REMARK  status: ('A' for Active; 'I' for Inactive)
REMARK    1  A    between atoms: C_5  and  O_9
REMARK    2  A    between atoms: C_7  and  O_13
REMARK    3  A    between atoms: C_12  and  C_17
REMARK    4  A    between atoms: C_16  and  C_19
REMARK    5  A    between atoms: C_19  and  O_22
REMARK    6  A    between atoms: C_21  and  O_24
REMARK    7  A    between atoms: C_23  and  C_27
REMARK    8  A    between atoms: C_25  and  O_28
REMARK    9  A    between atoms: C_26  and  O_29
REMARK   10  A    between atoms: C_27  and  O_30
REMARK                            x       y       z     vdW  Elec       q    Type
REMARK                         _______ _______ _______ _____ _____    ______ ____
ROOT
ATOM      1  O   UNL     1      11.433  17.000  40.075  0.00  0.00    +0.000 OA
ATOM      2  C   UNL     1      11.170  16.763  41.239  0.00  0.00    +0.000 C 
ATOM      3  C   UNL     1       9.787  16.393  41.671  0.00  0.00    +0.000 A 
ATOM      4  C   UNL     1      12.176  16.944  42.329  0.00  0.00    +0.000 A 
ATOM      5  C   UNL     1       8.733  16.341  40.754  0.00  0.00    +0.000 A 
ATOM      6  C   UNL     1       9.550  16.108  43.022  0.00  0.00    +0.000 A 
ATOM      7  C   UNL     1      13.432  17.511  42.058  0.00  0.00    +0.000 A 
ATOM      8  C   UNL     1      11.851  16.544  43.634  0.00  0.00    +0.000 A 
ATOM      9  C   UNL     1       7.463  15.956  41.167  0.00  0.00    +0.000 A 
ATOM     10  C   UNL     1       8.231  15.921  43.450  0.00  0.00    +0.000 A 
ATOM     11  C   UNL     1      10.663  15.739  43.891  0.00  0.00    +0.000 C 
ATOM     12  C   UNL     1      14.372  17.652  43.074  0.00  0.00    +0.000 A 
ATOM     13  C   UNL     1      12.809  16.701  44.646  0.00  0.00    +0.000 A 
ATOM     14  C   UNL     1       7.202  15.734  42.521  0.00  0.00    +0.000 A 
ATOM     15  C   UNL     1      14.060  17.245  44.367  0.00  0.00    +0.000 A 
ENDROOT
BRANCH  11  16
ATOM     16  C   UNL     1      10.895  14.314  44.397  0.00  0.00    +0.000 C 
ATOM     17  O   UNL     1       9.759  13.395  44.272  0.00  0.00    +0.000 OA
ATOM     18  C   UNL     1      12.162  13.669  43.787  0.00  0.00    +0.000 C 
ATOM     19  C   UNL     1       9.492  12.682  43.019  0.00  0.00    +0.000 C 
ATOM     20  C   UNL     1      11.879  13.144  42.364  0.00  0.00    +0.000 C 
ATOM     21  C   UNL     1      10.759  12.082  42.373  0.00  0.00    +0.000 C 
BRANCH  21  22
ATOM     22  O   UNL     1      10.463  11.756  41.007  0.00  0.00    +0.000 OA
ATOM     23  H   UNL     1      10.337  12.589  40.504  0.00  0.00    +0.000 HD
ENDBRANCH  21  22
BRANCH  18  24
ATOM     24  O   UNL     1      12.606  12.604  44.634  0.00  0.00    +0.000 OA
ATOM     25  H   UNL     1      13.382  12.915  45.135  0.00  0.00    +0.000 HD
ENDBRANCH  18  24
BRANCH  20  26
ATOM     26  O   UNL     1      13.073  12.597  41.817  0.00  0.00    +0.000 OA
ATOM     27  H   UNL     1      13.037  11.644  41.992  0.00  0.00    +0.000 HD
ENDBRANCH  20  26
BRANCH  19  28
ATOM     28  C   UNL     1       8.349  11.672  43.249  0.00  0.00    +0.000 C 
BRANCH  28  29
ATOM     29  O   UNL     1       7.467  11.629  42.131  0.00  0.00    +0.000 OA
ATOM     30  H   UNL     1       6.588  11.897  42.451  0.00  0.00    +0.000 HD
ENDBRANCH  28  29
ENDBRANCH  19  28
ENDBRANCH  11  16
BRANCH   7  31
ATOM     31  O   UNL     1      13.749  17.947  40.802  0.00  0.00    +0.000 OA
ATOM     32  H   UNL     1      14.259  18.799  40.901  0.00  0.00    +0.000 HD
ENDBRANCH   7  31
BRANCH   5  33
ATOM     33  O   UNL     1       8.948  16.578  39.430  0.00  0.00    +0.000 OA
ATOM     34  H   UNL     1       9.633  15.918  39.129  0.00  0.00    +0.000 HD
ENDBRANCH   5  33
BRANCH  14  35
ATOM     35  C   UNL     1       5.905  15.071  42.987  0.00  0.00    +0.000 C 
BRANCH  35  36
ATOM     36  O   UNL     1       5.591  13.880  42.271  0.00  0.00    +0.000 OA
ATOM     37  H   UNL     1       4.778  14.033  41.770  0.00  0.00    +0.000 HD
ENDBRANCH  35  36
ENDBRANCH  14  35
TORSDOF 10
ENDMDL
MODEL 8
REMARK VINA RESULT:    -5.820      1.990      3.459
REMARK INTER + INTRA:          -9.042
REMARK INTER:                  -8.209
REMARK INTRA:                  -0.833
REMARK UNBOUND:                -1.010
REMARK  Name = opt45.pdb
REMARK  10 active torsions:
REMARK  status: ('A' for Active; 'I' for Inactive)
REMARK    1  A    between atoms: C_5  and  O_9
REMARK    2  A    between atoms: C_7  and  O_13
REMARK    3  A    between atoms: C_12  and  C_17
REMARK    4  A    between atoms: C_16  and  C_19
REMARK    5  A    between atoms: C_19  and  O_22
REMARK    6  A    between atoms: C_21  and  O_24
REMARK    7  A    between atoms: C_23  and  C_27
REMARK    8  A    between atoms: C_25  and  O_28
REMARK    9  A    between atoms: C_26  and  O_29
REMARK   10  A    between atoms: C_27  and  O_30
REMARK                            x       y       z     vdW  Elec       q    Type
REMARK                         _______ _______ _______ _____ _____    ______ ____
ROOT
ATOM      1  O   UNL     1      12.999  17.576  40.759  0.00  0.00    +0.000 OA
ATOM      2  C   UNL     1      12.546  17.165  41.811  0.00  0.00    +0.000 C 
ATOM      3  C   UNL     1      11.302  16.336  41.859  0.00  0.00    +0.000 A 
ATOM      4  C   UNL     1      13.127  17.562  43.129  0.00  0.00    +0.000 A 
ATOM      5  C   UNL     1      10.591  16.031  40.694  0.00  0.00    +0.000 A 
ATOM      6  C   UNL     1      10.841  15.873  43.098  0.00  0.00    +0.000 A 
ATOM      7  C   UNL     1      14.149  18.521  43.203  0.00  0.00    +0.000 A 
ATOM      8  C   UNL     1      12.635  16.965  44.300  0.00  0.00    +0.000 A 
ATOM      9  C   UNL     1       9.460  15.227  40.754  0.00  0.00    +0.000 A 
ATOM     10  C   UNL     1       9.596  15.238  43.159  0.00  0.00    +0.000 A 
ATOM     11  C   UNL     1      11.757  15.803  44.232  0.00  0.00    +0.000 C 
ATOM     12  C   UNL     1      14.702  18.865  44.432  0.00  0.00    +0.000 A 
ATOM     13  C   UNL     1      13.200  17.330  45.531  0.00  0.00    +0.000 A 
ATOM     14  C   UNL     1       8.956  14.814  41.989  0.00  0.00    +0.000 A 
ATOM     15  C   UNL     1      14.228  18.268  45.595  0.00  0.00    +0.000 A 
ENDROOT
BRANCH  11  16
ATOM     16  C   UNL     1      12.313  14.489  44.782  0.00  0.00    +0.000 C 
ATOM     17  O   UNL     1      11.673  13.264  44.289  0.00  0.00    +0.000 OA
ATOM     18  C   UNL     1      13.847  14.381  44.619  0.00  0.00    +0.000 C 
ATOM     19  C   UNL     1      12.072  12.657  43.015  0.00  0.00    +0.000 C 
ATOM     20  C   UNL     1      14.218  13.965  43.180  0.00  0.00    +0.000 C 
ATOM     21  C   UNL     1      13.601  12.597  42.818  0.00  0.00    +0.000 C 
BRANCH  21  22
ATOM     22  O   UNL     1      13.872  12.355  41.430  0.00  0.00    +0.000 OA
ATOM     23  H   UNL     1      14.126  11.413  41.317  0.00  0.00    +0.000 HD
ENDBRANCH  21  22
BRANCH  18  24
ATOM     24  O   UNL     1      14.359  13.433  45.561  0.00  0.00    +0.000 OA
ATOM     25  H   UNL     1      14.717  13.923  46.323  0.00  0.00    +0.000 HD
ENDBRANCH  18  24
BRANCH  20  26
ATOM     26  O   UNL     1      15.634  13.917  43.052  0.00  0.00    +0.000 OA
ATOM     27  H   UNL     1      15.947  13.327  43.756  0.00  0.00    +0.000 HD
ENDBRANCH  20  26
BRANCH  19  28
ATOM     28  C   UNL     1      11.349  11.304  42.855  0.00  0.00    +0.000 C 
BRANCH  28  29
ATOM     29  O   UNL     1      11.000  11.065  41.495  0.00  0.00    +0.000 OA
ATOM     30  H   UNL     1      10.374  11.763  41.235  0.00  0.00    +0.000 HD
ENDBRANCH  28  29
ENDBRANCH  19  28
ENDBRANCH  11  16
BRANCH   7  31
ATOM     31  O   UNL     1      14.609  19.145  42.076  0.00  0.00    +0.000 OA
ATOM     32  H   UNL     1      14.659  18.459  41.354  0.00  0.00    +0.000 HD
ENDBRANCH   7  31
BRANCH   5  33
ATOM     33  O   UNL     1      11.042  16.440  39.475  0.00  0.00    +0.000 OA
ATOM     34  H   UNL     1      10.872  15.690  38.841  0.00  0.00    +0.000 HD
ENDBRANCH   5  33
BRANCH  14  35
ATOM     35  C   UNL     1       7.879  13.734  42.093  0.00  0.00    +0.000 C 
BRANCH  35  36
ATOM     36  O   UNL     1       8.344  12.437  41.731  0.00  0.00    +0.000 OA
ATOM     37  H   UNL     1       7.747  12.077  41.059  0.00  0.00    +0.000 HD
ENDBRANCH  35  36
ENDBRANCH  14  35
TORSDOF 10
ENDMDL
MODEL 9
REMARK VINA RESULT:    -5.791      1.998      4.154
REMARK INTER + INTRA:          -9.001
REMARK INTER:                  -8.474
REMARK INTRA:                  -0.527
REMARK UNBOUND:                -1.010
REMARK  Name = opt45.pdb
REMARK  10 active torsions:
REMARK  status: ('A' for Active; 'I' for Inactive)
REMARK    1  A    between atoms: C_5  and  O_9
REMARK    2  A    between atoms: C_7  and  O_13
REMARK    3  A    between atoms: C_12  and  C_17
REMARK    4  A    between atoms: C_16  and  C_19
REMARK    5  A    between atoms: C_19  and  O_22
REMARK    6  A    between atoms: C_21  and  O_24
REMARK    7  A    between atoms: C_23  and  C_27
REMARK    8  A    between atoms: C_25  and  O_28
REMARK    9  A    between atoms: C_26  and  O_29
REMARK   10  A    between atoms: C_27  and  O_30
REMARK                            x       y       z     vdW  Elec       q    Type
REMARK                         _______ _______ _______ _____ _____    ______ ____
ROOT
ATOM      1  O   UNL     1      12.205  17.663  40.893  0.00  0.00    +0.000 OA
ATOM      2  C   UNL     1      12.244  17.198  42.017  0.00  0.00    +0.000 C 
ATOM      3  C   UNL     1      11.426  16.007  42.402  0.00  0.00    +0.000 A 
ATOM      4  C   UNL     1      13.013  17.855  43.116  0.00  0.00    +0.000 A 
ATOM      5  C   UNL     1      10.554  15.404  41.490  0.00  0.00    +0.000 A 
ATOM      6  C   UNL     1      11.530  15.503  43.704  0.00  0.00    +0.000 A 
ATOM      7  C   UNL     1      13.625  19.103  42.917  0.00  0.00    +0.000 A 
ATOM      8  C   UNL     1      13.116  17.210  44.359  0.00  0.00    +0.000 A 
ATOM      9  C   UNL     1       9.831  14.274  41.854  0.00  0.00    +0.000 A 
ATOM     10  C   UNL     1      10.648  14.495  44.110  0.00  0.00    +0.000 A 
ATOM     11  C   UNL     1      12.703  15.820  44.513  0.00  0.00    +0.000 C 
ATOM     12  C   UNL     1      14.361  19.694  43.939  0.00  0.00    +0.000 A 
ATOM     13  C   UNL     1      13.856  17.826  45.379  0.00  0.00    +0.000 A 
ATOM     14  C   UNL     1       9.879  13.803  43.168  0.00  0.00    +0.000 A 
ATOM     15  C   UNL     1      14.477  19.055  45.168  0.00  0.00    +0.000 A 
ENDROOT
BRANCH  11  16
ATOM     16  C   UNL     1      13.805  14.808  44.826  0.00  0.00    +0.000 C 
ATOM     17  O   UNL     1      13.402  13.397  44.821  0.00  0.00    +0.000 OA
ATOM     18  C   UNL     1      15.055  14.998  43.935  0.00  0.00    +0.000 C 
ATOM     19  C   UNL     1      13.339  12.628  43.575  0.00  0.00    +0.000 C 
ATOM     20  C   UNL     1      14.838  14.369  42.543  0.00  0.00    +0.000 C 
ATOM     21  C   UNL     1      14.555  12.855  42.653  0.00  0.00    +0.000 C 
BRANCH  21  22
ATOM     22  O   UNL     1      14.225  12.381  41.339  0.00  0.00    +0.000 OA
ATOM     23  H   UNL     1      14.991  11.881  40.983  0.00  0.00    +0.000 HD
ENDBRANCH  21  22
BRANCH  18  24
ATOM     24  O   UNL     1      16.191  14.410  44.577  0.00  0.00    +0.000 OA
ATOM     25  H   UNL     1      16.795  15.126  44.845  0.00  0.00    +0.000 HD
ENDBRANCH  18  24
BRANCH  20  26
ATOM     26  O   UNL     1      15.986  14.599  41.736  0.00  0.00    +0.000 OA
ATOM     27  H   UNL     1      15.670  14.619  40.819  0.00  0.00    +0.000 HD
ENDBRANCH  20  26
BRANCH  19  28
ATOM     28  C   UNL     1      13.054  11.149  43.910  0.00  0.00    +0.000 C 
BRANCH  28  29
ATOM     29  O   UNL     1      14.062  10.611  44.762  0.00  0.00    +0.000 OA
ATOM     30  H   UNL     1      14.729  11.308  44.887  0.00  0.00    +0.000 HD
ENDBRANCH  28  29
ENDBRANCH  19  28
ENDBRANCH  11  16
BRANCH   7  31
ATOM     31  O   UNL     1      13.498  19.765  41.728  0.00  0.00    +0.000 OA
ATOM     32  H   UNL     1      13.211  20.698  41.935  0.00  0.00    +0.000 HD
ENDBRANCH   7  31
BRANCH   5  33
ATOM     33  O   UNL     1      10.465  15.855  40.207  0.00  0.00    +0.000 OA
ATOM     34  H   UNL     1      10.823  16.784  40.206  0.00  0.00    +0.000 HD
ENDBRANCH   5  33
BRANCH  14  35
ATOM     35  C   UNL     1       9.311  12.435  43.548  0.00  0.00    +0.000 C 
BRANCH  35  36
ATOM     36  O   UNL     1       9.730  11.388  42.678  0.00  0.00    +0.000 OA
ATOM     37  H   UNL     1       9.726  10.559  43.178  0.00  0.00    +0.000 HD
ENDBRANCH  35  36
ENDBRANCH  14  35
TORSDOF 10
ENDMDL
MODEL 10
REMARK VINA RESULT:    -5.628      2.456      5.225
REMARK INTER + INTRA:          -8.777
REMARK INTER:                  -7.642
REMARK INTRA:                  -1.135
REMARK UNBOUND:                -1.010
REMARK  Name = opt45.pdb
REMARK  10 active torsions:
REMARK  status: ('A' for Active; 'I' for Inactive)
REMARK    1  A    between atoms: C_5  and  O_9
REMARK    2  A    between atoms: C_7  and  O_13
REMARK    3  A    between atoms: C_12  and  C_17
REMARK    4  A    between atoms: C_16  and  C_19
REMARK    5  A    between atoms: C_19  and  O_22
REMARK    6  A    between atoms: C_21  and  O_24
REMARK    7  A    between atoms: C_23  and  C_27
REMARK    8  A    between atoms: C_25  and  O_28
REMARK    9  A    between atoms: C_26  and  O_29
REMARK   10  A    between atoms: C_27  and  O_30
REMARK                            x       y       z     vdW  Elec       q    Type
REMARK                         _______ _______ _______ _____ _____    ______ ____
ROOT
ATOM      1  O   UNL     1      18.348  15.073  45.511  0.00  0.00    +0.000 OA
ATOM      2  C   UNL     1      17.719  15.176  44.475  0.00  0.00    +0.000 C 
ATOM      3  C   UNL     1      16.434  14.443  44.260  0.00  0.00    +0.000 A 
ATOM      4  C   UNL     1      18.248  15.940  43.304  0.00  0.00    +0.000 A 
ATOM      5  C   UNL     1      15.923  13.579  45.235  0.00  0.00    +0.000 A 
ATOM      6  C   UNL     1      15.744  14.620  43.054  0.00  0.00    +0.000 A 
ATOM      7  C   UNL     1      19.549  16.470  43.321  0.00  0.00    +0.000 A 
ATOM      8  C   UNL     1      17.429  16.121  42.179  0.00  0.00    +0.000 A 
ATOM      9  C   UNL     1      14.707  12.938  45.034  0.00  0.00    +0.000 A 
ATOM     10  C   UNL     1      14.631  13.813  42.790  0.00  0.00    +0.000 A 
ATOM     11  C   UNL     1      16.008  15.797  42.233  0.00  0.00    +0.000 C 
ATOM     12  C   UNL     1      20.022  17.202  42.237  0.00  0.00    +0.000 A 
ATOM     13  C   UNL     1      17.926  16.855  41.093  0.00  0.00    +0.000 A 
ATOM     14  C   UNL     1      14.045  13.056  43.810  0.00  0.00    +0.000 A 
ATOM     15  C   UNL     1      19.210  17.395  41.125  0.00  0.00    +0.000 A 
ENDROOT
BRANCH  11  16
ATOM     16  C   UNL     1      15.032  16.967  42.106  0.00  0.00    +0.000 C 
ATOM     17  O   UNL     1      13.688  16.633  41.620  0.00  0.00    +0.000 OA
ATOM     18  C   UNL     1      14.928  17.795  43.409  0.00  0.00    +0.000 C 
ATOM     19  C   UNL     1      12.651  16.139  42.532  0.00  0.00    +0.000 C 
ATOM     20  C   UNL     1      14.001  17.100  44.428  0.00  0.00    +0.000 C 
ATOM     21  C   UNL     1      12.577  16.924  43.858  0.00  0.00    +0.000 C 
BRANCH  21  22
ATOM     22  O   UNL     1      11.826  16.149  44.804  0.00  0.00    +0.000 OA
ATOM     23  H   UNL     1      11.757  15.227  44.473  0.00  0.00    +0.000 HD
ENDBRANCH  21  22
BRANCH  18  24
ATOM     24  O   UNL     1      14.439  19.105  43.100  0.00  0.00    +0.000 OA
ATOM     25  H   UNL     1      13.470  19.103  43.213  0.00  0.00    +0.000 HD
ENDBRANCH  18  24
BRANCH  20  26
ATOM     26  O   UNL     1      13.962  17.864  45.627  0.00  0.00    +0.000 OA
ATOM     27  H   UNL     1      13.447  17.340  46.262  0.00  0.00    +0.000 HD
ENDBRANCH  20  26
BRANCH  19  28
ATOM     28  C   UNL     1      11.315  16.043  41.767  0.00  0.00    +0.000 C 
BRANCH  28  29
ATOM     29  O   UNL     1      10.441  15.096  42.374  0.00  0.00    +0.000 OA
ATOM     30  H   UNL     1       9.599  15.133  41.888  0.00  0.00    +0.000 HD
ENDBRANCH  28  29
ENDBRANCH  19  28
ENDBRANCH  11  16
BRANCH   7  31
ATOM     31  O   UNL     1      20.376  16.265  44.390  0.00  0.00    +0.000 OA
ATOM     32  H   UNL     1      20.746  15.342  44.309  0.00  0.00    +0.000 HD
ENDBRANCH   7  31
BRANCH   5  33
ATOM     33  O   UNL     1      16.559  13.422  46.429  0.00  0.00    +0.000 OA
ATOM     34  H   UNL     1      16.429  14.270  46.936  0.00  0.00    +0.000 HD
ENDBRANCH   5  33
BRANCH  14  35
ATOM     35  C   UNL     1      12.601  12.583  43.633  0.00  0.00    +0.000 C 
BRANCH  35  36
ATOM     36  O   UNL     1      11.671  13.293  44.446  0.00  0.00    +0.000 OA
ATOM     37  H   UNL     1      12.020  13.324  45.349  0.00  0.00    +0.000 HD
ENDBRANCH  35  36
ENDBRANCH  14  35
TORSDOF 10
ENDMDL
MODEL 11
REMARK VINA RESULT:    -5.460      2.076      6.391
REMARK INTER + INTRA:          -8.544
REMARK INTER:                  -8.386
REMARK INTRA:                  -0.159
REMARK UNBOUND:                -1.010
REMARK  Name = opt45.pdb
REMARK  10 active torsions:
REMARK  status: ('A' for Active; 'I' for Inactive)
REMARK    1  A    between atoms: C_5  and  O_9
REMARK    2  A    between atoms: C_7  and  O_13
REMARK    3  A    between atoms: C_12  and  C_17
REMARK    4  A    between atoms: C_16  and  C_19
REMARK    5  A    between atoms: C_19  and  O_22
REMARK    6  A    between atoms: C_21  and  O_24
REMARK    7  A    between atoms: C_23  and  C_27
REMARK    8  A    between atoms: C_25  and  O_28
REMARK    9  A    between atoms: C_26  and  O_29
REMARK   10  A    between atoms: C_27  and  O_30
REMARK                            x       y       z     vdW  Elec       q    Type
REMARK                         _______ _______ _______ _____ _____    ______ ____
ROOT
ATOM      1  O   UNL     1      11.586  11.180  43.355  0.00  0.00    +0.000 OA
ATOM      2  C   UNL     1      11.732  12.348  43.663  0.00  0.00    +0.000 C 
ATOM      3  C   UNL     1      13.036  12.867  44.178  0.00  0.00    +0.000 A 
ATOM      4  C   UNL     1      10.590  13.312  43.666  0.00  0.00    +0.000 A 
ATOM      5  C   UNL     1      14.132  12.017  44.359  0.00  0.00    +0.000 A 
ATOM      6  C   UNL     1      13.150  14.227  44.495  0.00  0.00    +0.000 A 
ATOM      7  C   UNL     1       9.279  12.871  43.424  0.00  0.00    +0.000 A 
ATOM      8  C   UNL     1      10.841  14.669  43.918  0.00  0.00    +0.000 A 
ATOM      9  C   UNL     1      15.347  12.525  44.801  0.00  0.00    +0.000 A 
ATOM     10  C   UNL     1      14.315  14.677  45.127  0.00  0.00    +0.000 A 
ATOM     11  C   UNL     1      12.205  15.184  43.929  0.00  0.00    +0.000 C 
ATOM     12  C   UNL     1       8.226  13.780  43.402  0.00  0.00    +0.000 A 
ATOM     13  C   UNL     1       9.766  15.569  43.900  0.00  0.00    +0.000 A 
ATOM     14  C   UNL     1      15.452  13.864  45.182  0.00  0.00    +0.000 A 
ATOM     15  C   UNL     1       8.470  15.128  43.639  0.00  0.00    +0.000 A 
ENDROOT
BRANCH  11  16
ATOM     16  C   UNL     1      12.575  16.172  42.821  0.00  0.00    +0.000 C 
ATOM     17  O   UNL     1      11.698  17.340  42.683  0.00  0.00    +0.000 OA
ATOM     18  C   UNL     1      14.050  16.630  42.905  0.00  0.00    +0.000 C 
ATOM     19  C   UNL     1      11.881  18.531  43.517  0.00  0.00    +0.000 C 
ATOM     20  C   UNL     1      14.223  17.728  43.976  0.00  0.00    +0.000 C 
ATOM     21  C   UNL     1      13.356  18.964  43.654  0.00  0.00    +0.000 C 
BRANCH  21  22
ATOM     22  O   UNL     1      13.465  19.868  44.762  0.00  0.00    +0.000 OA
ATOM     23  H   UNL     1      13.128  20.748  44.486  0.00  0.00    +0.000 HD
ENDBRANCH  21  22
BRANCH  18  24
ATOM     24  O   UNL     1      14.472  17.110  41.624  0.00  0.00    +0.000 OA
ATOM     25  H   UNL     1      15.430  16.954  41.540  0.00  0.00    +0.000 HD
ENDBRANCH  18  24
BRANCH  20  26
ATOM     26  O   UNL     1      15.595  18.095  44.058  0.00  0.00    +0.000 OA
ATOM     27  H   UNL     1      15.859  18.349  43.159  0.00  0.00    +0.000 HD
ENDBRANCH  20  26
BRANCH  19  28
ATOM     28  C   UNL     1      10.929  19.641  43.025  0.00  0.00    +0.000 C 
BRANCH  28  29
ATOM     29  O   UNL     1      10.676  20.595  44.052  0.00  0.00    +0.000 OA
ATOM     30  H   UNL     1      10.188  21.331  43.642  0.00  0.00    +0.000 HD
ENDBRANCH  28  29
ENDBRANCH  19  28
ENDBRANCH  11  16
BRANCH   7  31
ATOM     31  O   UNL     1       9.010  11.546  43.221  0.00  0.00    +0.000 OA
ATOM     32  H   UNL     1       8.171  11.490  42.684  0.00  0.00    +0.000 HD
ENDBRANCH   7  31
BRANCH   5  33
ATOM     33  O   UNL     1      14.055  10.699  44.022  0.00  0.00    +0.000 OA
ATOM     34  H   UNL     1      14.551  10.594  43.165  0.00  0.00    +0.000 HD
ENDBRANCH   5  33
BRANCH  14  35
ATOM     35  C   UNL     1      16.810  14.521  45.428  0.00  0.00    +0.000 C 
BRANCH  35  36
ATOM     36  O   UNL     1      16.720  15.915  45.712  0.00  0.00    +0.000 OA
ATOM     37  H   UNL     1      17.608  16.295  45.652  0.00  0.00    +0.000 HD
ENDBRANCH  35  36
ENDBRANCH  14  35
TORSDOF 10
ENDMDL
MODEL 12
REMARK VINA RESULT:    -5.430      2.721      6.113
REMARK INTER + INTRA:          -8.503
REMARK INTER:                  -8.247
REMARK INTRA:                  -0.257
REMARK UNBOUND:                -1.010
REMARK  Name = opt45.pdb
REMARK  10 active torsions:
REMARK  status: ('A' for Active; 'I' for Inactive)
REMARK    1  A    between atoms: C_5  and  O_9
REMARK    2  A    between atoms: C_7  and  O_13
REMARK    3  A    between atoms: C_12  and  C_17
REMARK    4  A    between atoms: C_16  and  C_19
REMARK    5  A    between atoms: C_19  and  O_22
REMARK    6  A    between atoms: C_21  and  O_24
REMARK    7  A    between atoms: C_23  and  C_27
REMARK    8  A    between atoms: C_25  and  O_28
REMARK    9  A    between atoms: C_26  and  O_29
REMARK   10  A    between atoms: C_27  and  O_30
REMARK                            x       y       z     vdW  Elec       q    Type
REMARK                         _______ _______ _______ _____ _____    ______ ____
ROOT
ATOM      1  O   UNL     1      13.684  18.071  43.608  0.00  0.00    +0.000 OA
ATOM      2  C   UNL     1      14.383  17.251  44.173  0.00  0.00    +0.000 C 
ATOM      3  C   UNL     1      14.089  15.787  44.102  0.00  0.00    +0.000 A 
ATOM      4  C   UNL     1      15.504  17.657  45.074  0.00  0.00    +0.000 A 
ATOM      5  C   UNL     1      12.973  15.306  43.408  0.00  0.00    +0.000 A 
ATOM      6  C   UNL     1      14.944  14.889  44.754  0.00  0.00    +0.000 A 
ATOM      7  C   UNL     1      15.715  19.008  45.393  0.00  0.00    +0.000 A 
ATOM      8  C   UNL     1      16.346  16.668  45.605  0.00  0.00    +0.000 A 
ATOM      9  C   UNL     1      12.739  13.939  43.319  0.00  0.00    +0.000 A 
ATOM     10  C   UNL     1      14.579  13.539  44.822  0.00  0.00    +0.000 A 
ATOM     11  C   UNL     1      16.300  15.301  45.101  0.00  0.00    +0.000 C 
ATOM     12  C   UNL     1      16.777  19.378  46.212  0.00  0.00    +0.000 A 
ATOM     13  C   UNL     1      17.407  17.060  46.435  0.00  0.00    +0.000 A 
ATOM     14  C   UNL     1      13.547  13.041  44.020  0.00  0.00    +0.000 A 
ATOM     15  C   UNL     1      17.623  18.404  46.731  0.00  0.00    +0.000 A 
ENDROOT
BRANCH  11  16
ATOM     16  C   UNL     1      17.543  14.797  44.365  0.00  0.00    +0.000 C 
ATOM     17  O   UNL     1      17.297  14.002  43.158  0.00  0.00    +0.000 OA
ATOM     18  C   UNL     1      18.545  15.933  44.050  0.00  0.00    +0.000 C 
ATOM     19  C   UNL     1      17.047  14.642  41.863  0.00  0.00    +0.000 C 
ATOM     20  C   UNL     1      18.099  16.727  42.805  0.00  0.00    +0.000 C 
ATOM     21  C   UNL     1      18.006  15.814  41.564  0.00  0.00    +0.000 C 
BRANCH  21  22
ATOM     22  O   UNL     1      17.452  16.593  40.494  0.00  0.00    +0.000 OA
ATOM     23  H   UNL     1      18.186  17.008  39.993  0.00  0.00    +0.000 HD
ENDBRANCH  21  22
BRANCH  18  24
ATOM     24  O   UNL     1      19.847  15.375  43.847  0.00  0.00    +0.000 OA
ATOM     25  H   UNL     1      20.362  15.994  43.298  0.00  0.00    +0.000 HD
ENDBRANCH  18  24
BRANCH  20  26
ATOM     26  O   UNL     1      19.016  17.789  42.569  0.00  0.00    +0.000 OA
ATOM     27  H   UNL     1      18.510  18.609  42.675  0.00  0.00    +0.000 HD
ENDBRANCH  20  26
BRANCH  19  28
ATOM     28  C   UNL     1      16.997  13.557  40.767  0.00  0.00    +0.000 C 
BRANCH  28  29
ATOM     29  O   UNL     1      17.876  13.871  39.691  0.00  0.00    +0.000 OA
ATOM     30  H   UNL     1      18.782  13.842  40.046  0.00  0.00    +0.000 HD
ENDBRANCH  28  29
ENDBRANCH  19  28
ENDBRANCH  11  16
BRANCH   7  31
ATOM     31  O   UNL     1      14.877  19.979  44.921  0.00  0.00    +0.000 OA
ATOM     32  H   UNL     1      14.136  19.523  44.433  0.00  0.00    +0.000 HD
ENDBRANCH   7  31
BRANCH   5  33
ATOM     33  O   UNL     1      12.151  16.159  42.735  0.00  0.00    +0.000 OA
ATOM     34  H   UNL     1      11.221  15.949  43.028  0.00  0.00    +0.000 HD
ENDBRANCH   5  33
BRANCH  14  35
ATOM     35  C   UNL     1      13.487  11.537  43.754  0.00  0.00    +0.000 C 
BRANCH  35  36
ATOM     36  O   UNL     1      14.283  10.772  44.655  0.00  0.00    +0.000 OA
ATOM     37  H   UNL     1      13.748  10.035  44.982  0.00  0.00    +0.000 HD
ENDBRANCH  35  36
ENDBRANCH  14  35
TORSDOF 10
ENDMDL
MODEL 13
REMARK VINA RESULT:    -5.414      2.071      5.862
REMARK INTER + INTRA:          -8.481
REMARK INTER:                  -7.701
REMARK INTRA:                  -0.780
REMARK UNBOUND:                -1.010
REMARK  Name = opt45.pdb
REMARK  10 active torsions:
REMARK  status: ('A' for Active; 'I' for Inactive)
REMARK    1  A    between atoms: C_5  and  O_9
REMARK    2  A    between atoms: C_7  and  O_13
REMARK    3  A    between atoms: C_12  and  C_17
REMARK    4  A    between atoms: C_16  and  C_19
REMARK    5  A    between atoms: C_19  and  O_22
REMARK    6  A    between atoms: C_21  and  O_24
REMARK    7  A    between atoms: C_23  and  C_27
REMARK    8  A    between atoms: C_25  and  O_28
REMARK    9  A    between atoms: C_26  and  O_29
REMARK   10  A    between atoms: C_27  and  O_30
REMARK                            x       y       z     vdW  Elec       q    Type
REMARK                         _______ _______ _______ _____ _____    ______ ____
ROOT
ATOM      1  O   UNL     1      14.053  12.521  41.581  0.00  0.00    +0.000 OA
ATOM      2  C   UNL     1      13.714  13.195  42.536  0.00  0.00    +0.000 C 
ATOM      3  C   UNL     1      14.704  13.984  43.330  0.00  0.00    +0.000 A 
ATOM      4  C   UNL     1      12.312  13.180  43.054  0.00  0.00    +0.000 A 
ATOM      5  C   UNL     1      16.068  13.950  43.025  0.00  0.00    +0.000 A 
ATOM      6  C   UNL     1      14.250  14.760  44.405  0.00  0.00    +0.000 A 
ATOM      7  C   UNL     1      11.361  12.293  42.524  0.00  0.00    +0.000 A 
ATOM      8  C   UNL     1      11.954  14.064  44.083  0.00  0.00    +0.000 A 
ATOM      9  C   UNL     1      16.968  14.722  43.749  0.00  0.00    +0.000 A 
ATOM     10  C   UNL     1      15.192  15.367  45.243  0.00  0.00    +0.000 A 
ATOM     11  C   UNL     1      12.845  15.149  44.476  0.00  0.00    +0.000 C 
ATOM     12  C   UNL     1      10.052  12.306  42.995  0.00  0.00    +0.000 A 
ATOM     13  C   UNL     1      10.631  14.057  44.550  0.00  0.00    +0.000 A 
ATOM     14  C   UNL     1      16.536  15.446  44.862  0.00  0.00    +0.000 A 
ATOM     15  C   UNL     1       9.688  13.188  44.006  0.00  0.00    +0.000 A 
ENDROOT
BRANCH  11  16
ATOM     16  C   UNL     1      12.355  16.572  44.205  0.00  0.00    +0.000 C 
ATOM     17  O   UNL     1      13.293  17.650  44.540  0.00  0.00    +0.000 OA
ATOM     18  C   UNL     1      11.841  16.756  42.758  0.00  0.00    +0.000 C 
ATOM     19  C   UNL     1      14.346  18.059  43.605  0.00  0.00    +0.000 C 
ATOM     20  C   UNL     1      13.017  16.948  41.778  0.00  0.00    +0.000 C 
ATOM     21  C   UNL     1      13.856  18.190  42.148  0.00  0.00    +0.000 C 
BRANCH  21  22
ATOM     22  O   UNL     1      15.000  18.212  41.283  0.00  0.00    +0.000 OA
ATOM     23  H   UNL     1      15.717  17.684  41.694  0.00  0.00    +0.000 HD
ENDBRANCH  21  22
BRANCH  18  24
ATOM     24  O   UNL     1      10.959  17.882  42.707  0.00  0.00    +0.000 OA
ATOM     25  H   UNL     1      10.778  18.086  41.771  0.00  0.00    +0.000 HD
ENDBRANCH  18  24
BRANCH  20  26
ATOM     26  O   UNL     1      12.513  17.070  40.453  0.00  0.00    +0.000 OA
ATOM     27  H   UNL     1      12.767  16.254  39.993  0.00  0.00    +0.000 HD
ENDBRANCH  20  26
BRANCH  19  28
ATOM     28  C   UNL     1      15.052  19.313  44.161  0.00  0.00    +0.000 C 
BRANCH  28  29
ATOM     29  O   UNL     1      14.939  19.382  45.579  0.00  0.00    +0.000 OA
ATOM     30  H   UNL     1      14.035  19.102  45.806  0.00  0.00    +0.000 HD
ENDBRANCH  28  29
ENDBRANCH  19  28
ENDBRANCH  11  16
BRANCH   7  31
ATOM     31  O   UNL     1      11.703  11.395  41.553  0.00  0.00    +0.000 OA
ATOM     32  H   UNL     1      11.827  11.905  40.704  0.00  0.00    +0.000 HD
ENDBRANCH   7  31
BRANCH   5  33
ATOM     33  O   UNL     1      16.526  13.233  41.961  0.00  0.00    +0.000 OA
ATOM     34  H   UNL     1      17.479  13.492  41.830  0.00  0.00    +0.000 HD
ENDBRANCH   5  33
BRANCH  14  35
ATOM     35  C   UNL     1      17.425  16.497  45.528  0.00  0.00    +0.000 C 
BRANCH  35  36
ATOM     36  O   UNL     1      16.740  17.282  46.500  0.00  0.00    +0.000 OA
ATOM     37  H   UNL     1      17.386  17.584  47.155  0.00  0.00    +0.000 HD
ENDBRANCH  35  36
ENDBRANCH  14  35
TORSDOF 10
ENDMDL
MODEL 14
REMARK VINA RESULT:    -5.389      2.226      5.832
REMARK INTER + INTRA:          -8.447
REMARK INTER:                  -7.609
REMARK INTRA:                  -0.839
REMARK UNBOUND:                -1.010
REMARK  Name = opt45.pdb
REMARK  10 active torsions:
REMARK  status: ('A' for Active; 'I' for Inactive)
REMARK    1  A    between atoms: C_5  and  O_9
REMARK    2  A    between atoms: C_7  and  O_13
REMARK    3  A    between atoms: C_12  and  C_17
REMARK    4  A    between atoms: C_16  and  C_19
REMARK    5  A    between atoms: C_19  and  O_22
REMARK    6  A    between atoms: C_21  and  O_24
REMARK    7  A    between atoms: C_23  and  C_27
REMARK    8  A    between atoms: C_25  and  O_28
REMARK    9  A    between atoms: C_26  and  O_29
REMARK   10  A    between atoms: C_27  and  O_30
REMARK                            x       y       z     vdW  Elec       q    Type
REMARK                         _______ _______ _______ _____ _____    ______ ____
ROOT
ATOM      1  O   UNL     1      12.625  12.426  42.878  0.00  0.00    +0.000 OA
ATOM      2  C   UNL     1      12.009  13.384  43.306  0.00  0.00    +0.000 C 
ATOM      3  C   UNL     1      12.710  14.577  43.874  0.00  0.00    +0.000 A 
ATOM      4  C   UNL     1      10.519  13.382  43.408  0.00  0.00    +0.000 A 
ATOM      5  C   UNL     1      14.104  14.620  43.967  0.00  0.00    +0.000 A 
ATOM      6  C   UNL     1      11.947  15.659  44.331  0.00  0.00    +0.000 A 
ATOM      7  C   UNL     1       9.781  12.222  43.120  0.00  0.00    +0.000 A 
ATOM      8  C   UNL     1       9.859  14.556  43.801  0.00  0.00    +0.000 A 
ATOM      9  C   UNL     1      14.739  15.754  44.461  0.00  0.00    +0.000 A 
ATOM     10  C   UNL     1      12.592  16.701  45.008  0.00  0.00    +0.000 A 
ATOM     11  C   UNL     1      10.573  15.826  43.867  0.00  0.00    +0.000 C 
ATOM     12  C   UNL     1       8.392  12.238  43.192  0.00  0.00    +0.000 A 
ATOM     13  C   UNL     1       8.458  14.550  43.875  0.00  0.00    +0.000 A 
ATOM     14  C   UNL     1      13.986  16.810  44.979  0.00  0.00    +0.000 A 
ATOM     15  C   UNL     1       7.732  13.402  43.569  0.00  0.00    +0.000 A 
ENDROOT
BRANCH  11  16
ATOM     16  C   UNL     1      10.151  16.904  42.869  0.00  0.00    +0.000 C 
ATOM     17  O   UNL     1      10.052  18.268  43.400  0.00  0.00    +0.000 OA
ATOM     18  C   UNL     1      11.021  16.901  41.590  0.00  0.00    +0.000 C 
ATOM     19  C   UNL     1      11.235  19.129  43.509  0.00  0.00    +0.000 C 
ATOM     20  C   UNL     1      12.363  17.621  41.837  0.00  0.00    +0.000 C 
ATOM     21  C   UNL     1      12.139  19.089  42.260  0.00  0.00    +0.000 C 
BRANCH  21  22
ATOM     22  O   UNL     1      13.419  19.638  42.607  0.00  0.00    +0.000 OA
ATOM     23  H   UNL     1      13.299  20.278  43.342  0.00  0.00    +0.000 HD
ENDBRANCH  21  22
BRANCH  18  24
ATOM     24  O   UNL     1      10.303  17.535  40.526  0.00  0.00    +0.000 OA
ATOM     25  H   UNL     1       9.559  16.957  40.273  0.00  0.00    +0.000 HD
ENDBRANCH  18  24
BRANCH  20  26
ATOM     26  O   UNL     1      13.155  17.562  40.657  0.00  0.00    +0.000 OA
ATOM     27  H   UNL     1      12.642  17.045  40.016  0.00  0.00    +0.000 HD
ENDBRANCH  20  26
BRANCH  19  28
ATOM     28  C   UNL     1      10.789  20.543  43.935  0.00  0.00    +0.000 C 
BRANCH  28  29
ATOM     29  O   UNL     1      11.793  21.186  44.715  0.00  0.00    +0.000 OA
ATOM     30  H   UNL     1      11.367  21.938  45.162  0.00  0.00    +0.000 HD
ENDBRANCH  28  29
ENDBRANCH  19  28
ENDBRANCH  11  16
BRANCH   7  31
ATOM     31  O   UNL     1      10.411  11.057  42.780  0.00  0.00    +0.000 OA
ATOM     32  H   UNL     1      10.494  11.041  41.786  0.00  0.00    +0.000 HD
ENDBRANCH   7  31
BRANCH   5  33
ATOM     33  O   UNL     1      14.867  13.595  43.494  0.00  0.00    +0.000 OA
ATOM     34  H   UNL     1      15.816  13.890  43.560  0.00  0.00    +0.000 HD
ENDBRANCH   5  33
BRANCH  14  35
ATOM     35  C   UNL     1      14.621  18.165  45.294  0.00  0.00    +0.000 C 
BRANCH  35  36
ATOM     36  O   UNL     1      13.667  19.179  45.595  0.00  0.00    +0.000 OA
ATOM     37  H   UNL     1      13.402  19.601  44.765  0.00  0.00    +0.000 HD
ENDBRANCH  35  36
ENDBRANCH  14  35
TORSDOF 10
ENDMDL
MODEL 15
REMARK VINA RESULT:    -5.370      1.996      4.789
REMARK INTER + INTRA:          -8.421
REMARK INTER:                  -9.374
REMARK INTRA:                   0.953
REMARK UNBOUND:                -1.010
REMARK  Name = opt45.pdb
REMARK  10 active torsions:
REMARK  status: ('A' for Active; 'I' for Inactive)
REMARK    1  A    between atoms: C_5  and  O_9
REMARK    2  A    between atoms: C_7  and  O_13
REMARK    3  A    between atoms: C_12  and  C_17
REMARK    4  A    between atoms: C_16  and  C_19
REMARK    5  A    between atoms: C_19  and  O_22
REMARK    6  A    between atoms: C_21  and  O_24
REMARK    7  A    between atoms: C_23  and  C_27
REMARK    8  A    between atoms: C_25  and  O_28
REMARK    9  A    between atoms: C_26  and  O_29
REMARK   10  A    between atoms: C_27  and  O_30
REMARK                            x       y       z     vdW  Elec       q    Type
REMARK                         _______ _______ _______ _____ _____    ______ ____
ROOT
ATOM      1  O   UNL     1      12.389  18.741  44.965  0.00  0.00    +0.000 OA
ATOM      2  C   UNL     1      12.563  17.686  44.384  0.00  0.00    +0.000 C 
ATOM      3  C   UNL     1      13.819  16.894  44.555  0.00  0.00    +0.000 A 
ATOM      4  C   UNL     1      11.592  17.175  43.370  0.00  0.00    +0.000 A 
ATOM      5  C   UNL     1      14.861  17.356  45.366  0.00  0.00    +0.000 A 
ATOM      6  C   UNL     1      13.952  15.675  43.878  0.00  0.00    +0.000 A 
ATOM      7  C   UNL     1      10.498  17.958  42.966  0.00  0.00    +0.000 A 
ATOM      8  C   UNL     1      11.787  15.899  42.819  0.00  0.00    +0.000 A 
ATOM      9  C   UNL     1      16.004  16.587  45.544  0.00  0.00    +0.000 A 
ATOM     10  C   UNL     1      15.187  15.017  43.910  0.00  0.00    +0.000 A 
ATOM     11  C   UNL     1      12.763  14.981  43.394  0.00  0.00    +0.000 C 
ATOM     12  C   UNL     1       9.585  17.462  42.041  0.00  0.00    +0.000 A 
ATOM     13  C   UNL     1      10.860  15.420  41.882  0.00  0.00    +0.000 A 
ATOM     14  C   UNL     1      16.174  15.403  44.823  0.00  0.00    +0.000 A 
ATOM     15  C   UNL     1       9.766  16.194  41.501  0.00  0.00    +0.000 A 
ENDROOT
BRANCH  11  16
ATOM     16  C   UNL     1      12.211  13.711  44.044  0.00  0.00    +0.000 C 
ATOM     17  O   UNL     1      10.843  13.799  44.566  0.00  0.00    +0.000 OA
ATOM     18  C   UNL     1      12.345  12.472  43.128  0.00  0.00    +0.000 C 
ATOM     19  C   UNL     1       9.681  13.605  43.692  0.00  0.00    +0.000 C 
ATOM     20  C   UNL     1      11.222  12.448  42.070  0.00  0.00    +0.000 C 
ATOM     21  C   UNL     1       9.829  12.404  42.735  0.00  0.00    +0.000 C 
BRANCH  21  22
ATOM     22  O   UNL     1       8.849  12.529  41.694  0.00  0.00    +0.000 OA
ATOM     23  H   UNL     1       8.810  13.467  41.408  0.00  0.00    +0.000 HD
ENDBRANCH  21  22
BRANCH  18  24
ATOM     24  O   UNL     1      12.304  11.285  43.927  0.00  0.00    +0.000 OA
ATOM     25  H   UNL     1      11.503  10.783  43.686  0.00  0.00    +0.000 HD
ENDBRANCH  18  24
BRANCH  20  26
ATOM     26  O   UNL     1      11.399  11.322  41.219  0.00  0.00    +0.000 OA
ATOM     27  H   UNL     1      10.711  10.686  41.469  0.00  0.00    +0.000 HD
ENDBRANCH  20  26
BRANCH  19  28
ATOM     28  C   UNL     1       8.402  13.586  44.554  0.00  0.00    +0.000 C 
BRANCH  28  29
ATOM     29  O   UNL     1       7.257  13.941  43.783  0.00  0.00    +0.000 OA
ATOM     30  H   UNL     1       6.782  13.115  43.585  0.00  0.00    +0.000 HD
ENDBRANCH  28  29
ENDBRANCH  19  28
ENDBRANCH  11  16
BRANCH   7  31
ATOM     31  O   UNL     1      10.318  19.220  43.459  0.00  0.00    +0.000 OA
ATOM     32  H   UNL     1      10.969  19.346  44.204  0.00  0.00    +0.000 HD
ENDBRANCH   7  31
BRANCH   5  33
ATOM     33  O   UNL     1      14.738  18.520  46.064  0.00  0.00    +0.000 OA
ATOM     34  H   UNL     1      14.822  18.285  47.028  0.00  0.00    +0.000 HD
ENDBRANCH   5  33
BRANCH  14  35
ATOM     35  C   UNL     1      17.281  14.407  45.169  0.00  0.00    +0.000 C 
BRANCH  35  36
ATOM     36  O   UNL     1      16.903  13.469  46.173  0.00  0.00    +0.000 OA
ATOM     37  H   UNL     1      16.835  12.596  45.761  0.00  0.00    +0.000 HD
ENDBRANCH  35  36
ENDBRANCH  14  35
TORSDOF 10
ENDMDL
MODEL 16
REMARK VINA RESULT:    -5.344      2.154      6.609
REMARK INTER + INTRA:          -8.385
REMARK INTER:                  -8.516
REMARK INTRA:                   0.132
REMARK UNBOUND:                -1.010
REMARK  Name = opt45.pdb
REMARK  10 active torsions:
REMARK  status: ('A' for Active; 'I' for Inactive)
REMARK    1  A    between atoms: C_5  and  O_9
REMARK    2  A    between atoms: C_7  and  O_13
REMARK    3  A    between atoms: C_12  and  C_17
REMARK    4  A    between atoms: C_16  and  C_19
REMARK    5  A    between atoms: C_19  and  O_22
REMARK    6  A    between atoms: C_21  and  O_24
REMARK    7  A    between atoms: C_23  and  C_27
REMARK    8  A    between atoms: C_25  and  O_28
REMARK    9  A    between atoms: C_26  and  O_29
REMARK   10  A    between atoms: C_27  and  O_30
REMARK                            x       y       z     vdW  Elec       q    Type
REMARK                         _______ _______ _______ _____ _____    ______ ____
ROOT
ATOM      1  O   UNL     1      10.339  11.792  42.826  0.00  0.00    +0.000 OA
ATOM      2  C   UNL     1      10.715  12.889  43.197  0.00  0.00    +0.000 C 
ATOM      3  C   UNL     1      12.078  13.097  43.775  0.00  0.00    +0.000 A 
ATOM      4  C   UNL     1       9.801  14.071  43.215  0.00  0.00    +0.000 A 
ATOM      5  C   UNL     1      12.963  12.028  43.944  0.00  0.00    +0.000 A 
ATOM      6  C   UNL     1      12.461  14.388  44.163  0.00  0.00    +0.000 A 
ATOM      7  C   UNL     1       8.437  13.928  42.914  0.00  0.00    +0.000 A 
ATOM      8  C   UNL     1      10.321  15.332  43.543  0.00  0.00    +0.000 A 
ATOM      9  C   UNL     1      14.240  12.248  44.446  0.00  0.00    +0.000 A 
ATOM     10  C   UNL     1      13.669  14.554  44.850  0.00  0.00    +0.000 A 
ATOM     11  C   UNL     1      11.761  15.547  43.618  0.00  0.00    +0.000 C 
ATOM     12  C   UNL     1       7.599  15.039  42.908  0.00  0.00    +0.000 A 
ATOM     13  C   UNL     1       9.460  16.439  43.539  0.00  0.00    +0.000 A 
ATOM     14  C   UNL     1      14.608  13.518  44.896  0.00  0.00    +0.000 A 
ATOM     15  C   UNL     1       8.112  16.293  43.219  0.00  0.00    +0.000 A 
ENDROOT
BRANCH  11  16
ATOM     16  C   UNL     1      12.373  16.481  42.573  0.00  0.00    +0.000 C 
ATOM     17  O   UNL     1      11.718  17.785  42.416  0.00  0.00    +0.000 OA
ATOM     18  C   UNL     1      13.894  16.678  42.773  0.00  0.00    +0.000 C 
ATOM     19  C   UNL     1      12.039  18.908  43.301  0.00  0.00    +0.000 C 
ATOM     20  C   UNL     1      14.172  17.706  43.890  0.00  0.00    +0.000 C 
ATOM     21  C   UNL     1      13.552  19.078  43.553  0.00  0.00    +0.000 C 
BRANCH  21  22
ATOM     22  O   UNL     1      13.731  19.926  44.696  0.00  0.00    +0.000 OA
ATOM     23  H   UNL     1      14.478  20.537  44.522  0.00  0.00    +0.000 HD
ENDBRANCH  21  22
BRANCH  18  24
ATOM     24  O   UNL     1      14.483  17.107  41.541  0.00  0.00    +0.000 OA
ATOM     25  H   UNL     1      14.139  17.995  41.332  0.00  0.00    +0.000 HD
ENDBRANCH  18  24
BRANCH  20  26
ATOM     26  O   UNL     1      15.576  17.830  44.078  0.00  0.00    +0.000 OA
ATOM     27  H   UNL     1      15.980  17.106  43.574  0.00  0.00    +0.000 HD
ENDBRANCH  20  26
BRANCH  19  28
ATOM     28  C   UNL     1      11.327  20.175  42.784  0.00  0.00    +0.000 C 
BRANCH  28  29
ATOM     29  O   UNL     1      11.210  21.156  43.811  0.00  0.00    +0.000 OA
ATOM     30  H   UNL     1      10.627  21.856  43.469  0.00  0.00    +0.000 HD
ENDBRANCH  28  29
ENDBRANCH  19  28
ENDBRANCH  11  16
BRANCH   7  31
ATOM     31  O   UNL     1       7.904  12.700  42.637  0.00  0.00    +0.000 OA
ATOM     32  H   UNL     1       7.650  12.281  43.506  0.00  0.00    +0.000 HD
ENDBRANCH   7  31
BRANCH   5  33
ATOM     33  O   UNL     1      12.624  10.772  43.539  0.00  0.00    +0.000 OA
ATOM     34  H   UNL     1      13.129  10.598  42.697  0.00  0.00    +0.000 HD
ENDBRANCH   5  33
BRANCH  14  35
ATOM     35  C   UNL     1      16.064  13.862  45.215  0.00  0.00    +0.000 C 
BRANCH  35  36
ATOM     36  O   UNL     1      16.450  13.510  46.540  0.00  0.00    +0.000 OA
ATOM     37  H   UNL     1      17.032  12.738  46.491  0.00  0.00    +0.000 HD
ENDBRANCH  35  36
ENDBRANCH  14  35
TORSDOF 10
ENDMDL
MODEL 17
REMARK VINA RESULT:    -5.162      2.804      5.763
REMARK INTER + INTRA:          -8.134
REMARK INTER:                  -7.778
REMARK INTRA:                  -0.356
REMARK UNBOUND:                -1.010
REMARK  Name = opt45.pdb
REMARK  10 active torsions:
REMARK  status: ('A' for Active; 'I' for Inactive)
REMARK    1  A    between atoms: C_5  and  O_9
REMARK    2  A    between atoms: C_7  and  O_13
REMARK    3  A    between atoms: C_12  and  C_17
REMARK    4  A    between atoms: C_16  and  C_19
REMARK    5  A    between atoms: C_19  and  O_22
REMARK    6  A    between atoms: C_21  and  O_24
REMARK    7  A    between atoms: C_23  and  C_27
REMARK    8  A    between atoms: C_25  and  O_28
REMARK    9  A    between atoms: C_26  and  O_29
REMARK   10  A    between atoms: C_27  and  O_30
REMARK                            x       y       z     vdW  Elec       q    Type
REMARK                         _______ _______ _______ _____ _____    ______ ____
ROOT
ATOM      1  O   UNL     1      11.968  17.532  44.592  0.00  0.00    +0.000 OA
ATOM      2  C   UNL     1      11.179  17.213  43.721  0.00  0.00    +0.000 C 
ATOM      3  C   UNL     1      11.160  15.832  43.149  0.00  0.00    +0.000 A 
ATOM      4  C   UNL     1      10.266  18.207  43.082  0.00  0.00    +0.000 A 
ATOM      5  C   UNL     1      12.075  14.861  43.569  0.00  0.00    +0.000 A 
ATOM      6  C   UNL     1      10.213  15.517  42.165  0.00  0.00    +0.000 A 
ATOM      7  C   UNL     1      10.369  19.575  43.383  0.00  0.00    +0.000 A 
ATOM      8  C   UNL     1       9.300  17.759  42.167  0.00  0.00    +0.000 A 
ATOM      9  C   UNL     1      12.015  13.572  43.054  0.00  0.00    +0.000 A 
ATOM     10  C   UNL     1      10.300  14.280  41.516  0.00  0.00    +0.000 A 
ATOM     11  C   UNL     1       9.013  16.336  42.025  0.00  0.00    +0.000 C 
ATOM     12  C   UNL     1       9.497  20.489  42.802  0.00  0.00    +0.000 A 
ATOM     13  C   UNL     1       8.434  18.697  41.586  0.00  0.00    +0.000 A 
ATOM     14  C   UNL     1      11.120  13.267  42.027  0.00  0.00    +0.000 A 
ATOM     15  C   UNL     1       8.530  20.049  41.905  0.00  0.00    +0.000 A 
ENDROOT
BRANCH  11  16
ATOM     16  C   UNL     1       7.624  15.868  42.460  0.00  0.00    +0.000 C 
ATOM     17  O   UNL     1       6.929  14.970  41.532  0.00  0.00    +0.000 OA
ATOM     18  C   UNL     1       7.623  15.258  43.881  0.00  0.00    +0.000 C 
ATOM     19  C   UNL     1       7.186  13.526  41.535  0.00  0.00    +0.000 C 
ATOM     20  C   UNL     1       8.131  13.801  43.853  0.00  0.00    +0.000 C 
ATOM     21  C   UNL     1       7.243  12.917  42.951  0.00  0.00    +0.000 C 
BRANCH  21  22
ATOM     22  O   UNL     1       7.863  11.626  42.867  0.00  0.00    +0.000 OA
ATOM     23  H   UNL     1       8.297  11.428  43.725  0.00  0.00    +0.000 HD
ENDBRANCH  21  22
BRANCH  18  24
ATOM     24  O   UNL     1       6.298  15.314  44.421  0.00  0.00    +0.000 OA
ATOM     25  H   UNL     1       6.242  14.678  45.157  0.00  0.00    +0.000 HD
ENDBRANCH  18  24
BRANCH  20  26
ATOM     26  O   UNL     1       8.159  13.285  45.178  0.00  0.00    +0.000 OA
ATOM     27  H   UNL     1       7.563  12.520  45.180  0.00  0.00    +0.000 HD
ENDBRANCH  20  26
BRANCH  19  28
ATOM     28  C   UNL     1       6.191  12.836  40.579  0.00  0.00    +0.000 C 
BRANCH  28  29
ATOM     29  O   UNL     1       6.616  11.515  40.260  0.00  0.00    +0.000 OA
ATOM     30  H   UNL     1       6.132  11.246  39.459  0.00  0.00    +0.000 HD
ENDBRANCH  28  29
ENDBRANCH  19  28
ENDBRANCH  11  16
BRANCH   7  31
ATOM     31  O   UNL     1      11.333  20.034  44.237  0.00  0.00    +0.000 OA
ATOM     32  H   UNL     1      11.460  19.343  44.945  0.00  0.00    +0.000 HD
ENDBRANCH   7  31
BRANCH   5  33
ATOM     33  O   UNL     1      12.979  15.135  44.551  0.00  0.00    +0.000 OA
ATOM     34  H   UNL     1      12.981  16.124  44.670  0.00  0.00    +0.000 HD
ENDBRANCH   5  33
BRANCH  14  35
ATOM     35  C   UNL     1      10.843  11.822  41.610  0.00  0.00    +0.000 C 
BRANCH  35  36
ATOM     36  O   UNL     1      11.318  11.511  40.303  0.00  0.00    +0.000 OA
ATOM     37  H   UNL     1      11.364  12.334  39.793  0.00  0.00    +0.000 HD
ENDBRANCH  35  36
ENDBRANCH  14  35
TORSDOF 10
ENDMDL
MODEL 18
REMARK VINA RESULT:    -5.146      1.866      6.363
REMARK INTER + INTRA:          -8.111
REMARK INTER:                  -8.670
REMARK INTRA:                   0.559
REMARK UNBOUND:                -1.010
REMARK  Name = opt45.pdb
REMARK  10 active torsions:
REMARK  status: ('A' for Active; 'I' for Inactive)
REMARK    1  A    between atoms: C_5  and  O_9
REMARK    2  A    between atoms: C_7  and  O_13
REMARK    3  A    between atoms: C_12  and  C_17
REMARK    4  A    between atoms: C_16  and  C_19
REMARK    5  A    between atoms: C_19  and  O_22
REMARK    6  A    between atoms: C_21  and  O_24
REMARK    7  A    between atoms: C_23  and  C_27
REMARK    8  A    between atoms: C_25  and  O_28
REMARK    9  A    between atoms: C_26  and  O_29
REMARK   10  A    between atoms: C_27  and  O_30
REMARK                            x       y       z     vdW  Elec       q    Type
REMARK                         _______ _______ _______ _____ _____    ______ ____
ROOT
ATOM      1  O   UNL     1       9.829  15.714  41.972  0.00  0.00    +0.000 OA
ATOM      2  C   UNL     1      10.774  15.872  42.722  0.00  0.00    +0.000 C 
ATOM      3  C   UNL     1      11.611  14.722  43.182  0.00  0.00    +0.000 A 
ATOM      4  C   UNL     1      11.085  17.201  43.329  0.00  0.00    +0.000 A 
ATOM      5  C   UNL     1      11.316  13.411  42.794  0.00  0.00    +0.000 A 
ATOM      6  C   UNL     1      12.701  14.969  44.027  0.00  0.00    +0.000 A 
ATOM      7  C   UNL     1      10.222  18.293  43.146  0.00  0.00    +0.000 A 
ATOM      8  C   UNL     1      12.254  17.347  44.093  0.00  0.00    +0.000 A 
ATOM      9  C   UNL     1      12.129  12.360  43.200  0.00  0.00    +0.000 A 
ATOM     10  C   UNL     1      13.382  13.881  44.585  0.00  0.00    +0.000 A 
ATOM     11  C   UNL     1      13.277  16.308  44.094  0.00  0.00    +0.000 C 
ATOM     12  C   UNL     1      10.534  19.533  43.693  0.00  0.00    +0.000 A 
ATOM     13  C   UNL     1      12.548  18.603  44.643  0.00  0.00    +0.000 A 
ATOM     14  C   UNL     1      13.177  12.588  44.094  0.00  0.00    +0.000 A 
ATOM     15  C   UNL     1      11.697  19.687  44.440  0.00  0.00    +0.000 A 
ENDROOT
BRANCH  11  16
ATOM     16  C   UNL     1      14.626  16.672  43.472  0.00  0.00    +0.000 C 
ATOM     17  O   UNL     1      15.636  17.204  44.393  0.00  0.00    +0.000 OA
ATOM     18  C   UNL     1      15.229  15.513  42.644  0.00  0.00    +0.000 C 
ATOM     19  C   UNL     1      16.482  16.311  45.191  0.00  0.00    +0.000 C 
ATOM     20  C   UNL     1      15.905  14.476  43.565  0.00  0.00    +0.000 C 
ATOM     21  C   UNL     1      17.043  15.118  44.388  0.00  0.00    +0.000 C 
BRANCH  21  22
ATOM     22  O   UNL     1      17.518  14.130  45.313  0.00  0.00    +0.000 OA
ATOM     23  H   UNL     1      16.759  13.584  45.610  0.00  0.00    +0.000 HD
ENDBRANCH  21  22
BRANCH  18  24
ATOM     24  O   UNL     1      16.173  16.039  41.706  0.00  0.00    +0.000 OA
ATOM     25  H   UNL     1      16.402  16.946  41.981  0.00  0.00    +0.000 HD
ENDBRANCH  18  24
BRANCH  20  26
ATOM     26  O   UNL     1      16.410  13.404  42.778  0.00  0.00    +0.000 OA
ATOM     27  H   UNL     1      15.779  13.286  42.050  0.00  0.00    +0.000 HD
ENDBRANCH  20  26
BRANCH  19  28
ATOM     28  C   UNL     1      17.549  17.150  45.923  0.00  0.00    +0.000 C 
BRANCH  28  29
ATOM     29  O   UNL     1      18.861  16.812  45.485  0.00  0.00    +0.000 OA
ATOM     30  H   UNL     1      19.416  16.737  46.280  0.00  0.00    +0.000 HD
ENDBRANCH  28  29
ENDBRANCH  19  28
ENDBRANCH  11  16
BRANCH   7  31
ATOM     31  O   UNL     1       9.058  18.157  42.443  0.00  0.00    +0.000 OA
ATOM     32  H   UNL     1       8.379  18.750  42.871  0.00  0.00    +0.000 HD
ENDBRANCH   7  31
BRANCH   5  33
ATOM     33  O   UNL     1      10.284  13.152  41.943  0.00  0.00    +0.000 OA
ATOM     34  H   UNL     1      10.688  12.976  41.050  0.00  0.00    +0.000 HD
ENDBRANCH   5  33
BRANCH  14  35
ATOM     35  C   UNL     1      14.241  11.524  44.367  0.00  0.00    +0.000 C 
BRANCH  35  36
ATOM     36  O   UNL     1      13.695  10.235  44.635  0.00  0.00    +0.000 OA
ATOM     37  H   UNL     1      13.818   9.684  43.848  0.00  0.00    +0.000 HD
ENDBRANCH  35  36
ENDBRANCH  14  35
TORSDOF 10
ENDMDL
MODEL 19
REMARK VINA RESULT:    -5.073      2.175      3.449
REMARK INTER + INTRA:          -8.010
REMARK INTER:                  -6.875
REMARK INTRA:                  -1.135
REMARK UNBOUND:                -1.010
REMARK  Name = opt45.pdb
REMARK  10 active torsions:
REMARK  status: ('A' for Active; 'I' for Inactive)
REMARK    1  A    between atoms: C_5  and  O_9
REMARK    2  A    between atoms: C_7  and  O_13
REMARK    3  A    between atoms: C_12  and  C_17
REMARK    4  A    between atoms: C_16  and  C_19
REMARK    5  A    between atoms: C_19  and  O_22
REMARK    6  A    between atoms: C_21  and  O_24
REMARK    7  A    between atoms: C_23  and  C_27
REMARK    8  A    between atoms: C_25  and  O_28
REMARK    9  A    between atoms: C_26  and  O_29
REMARK   10  A    between atoms: C_27  and  O_30
REMARK                            x       y       z     vdW  Elec       q    Type
REMARK                         _______ _______ _______ _____ _____    ______ ____
ROOT
ATOM      1  O   UNL     1      16.275  16.083  42.863  0.00  0.00    +0.000 OA
ATOM      2  C   UNL     1      15.200  15.929  43.410  0.00  0.00    +0.000 C 
ATOM      3  C   UNL     1      14.356  17.092  43.823  0.00  0.00    +0.000 A 
ATOM      4  C   UNL     1      14.709  14.578  43.817  0.00  0.00    +0.000 A 
ATOM      5  C   UNL     1      14.789  18.407  43.626  0.00  0.00    +0.000 A 
ATOM      6  C   UNL     1      13.116  16.850  44.429  0.00  0.00    +0.000 A 
ATOM      7  C   UNL     1      15.530  13.446  43.686  0.00  0.00    +0.000 A 
ATOM      8  C   UNL     1      13.412  14.450  44.339  0.00  0.00    +0.000 A 
ATOM      9  C   UNL     1      13.973  19.474  43.980  0.00  0.00    +0.000 A 
ATOM     10  C   UNL     1      12.403  17.931  44.959  0.00  0.00    +0.000 A 
ATOM     11  C   UNL     1      12.465  15.555  44.258  0.00  0.00    +0.000 C 
ATOM     12  C   UNL     1      15.054  12.189  44.043  0.00  0.00    +0.000 A 
ATOM     13  C   UNL     1      12.953  13.175  44.701  0.00  0.00    +0.000 A 
ATOM     14  C   UNL     1      12.766  19.245  44.643  0.00  0.00    +0.000 A 
ATOM     15  C   UNL     1      13.766  12.054  44.549  0.00  0.00    +0.000 A 
ENDROOT
BRANCH  11  16
ATOM     16  C   UNL     1      11.238  15.344  43.370  0.00  0.00    +0.000 C 
ATOM     17  O   UNL     1      10.055  16.144  43.708  0.00  0.00    +0.000 OA
ATOM     18  C   UNL     1      11.563  15.497  41.865  0.00  0.00    +0.000 C 
ATOM     19  C   UNL     1       9.906  17.521  43.227  0.00  0.00    +0.000 C 
ATOM     20  C   UNL     1      11.626  16.987  41.467  0.00  0.00    +0.000 C 
ATOM     21  C   UNL     1      10.282  17.695  41.741  0.00  0.00    +0.000 C 
BRANCH  21  22
ATOM     22  O   UNL     1      10.470  19.093  41.480  0.00  0.00    +0.000 OA
ATOM     23  H   UNL     1       9.781  19.600  41.961  0.00  0.00    +0.000 HD
ENDBRANCH  21  22
BRANCH  18  24
ATOM     24  O   UNL     1      10.569  14.815  41.093  0.00  0.00    +0.000 OA
ATOM     25  H   UNL     1      11.007  14.407  40.324  0.00  0.00    +0.000 HD
ENDBRANCH  18  24
BRANCH  20  26
ATOM     26  O   UNL     1      11.968  17.093  40.090  0.00  0.00    +0.000 OA
ATOM     27  H   UNL     1      11.230  17.557  39.665  0.00  0.00    +0.000 HD
ENDBRANCH  20  26
BRANCH  19  28
ATOM     28  C   UNL     1       8.499  18.033  43.598  0.00  0.00    +0.000 C 
BRANCH  28  29
ATOM     29  O   UNL     1       8.460  19.456  43.627  0.00  0.00    +0.000 OA
ATOM     30  H   UNL     1       9.312  19.771  43.279  0.00  0.00    +0.000 HD
ENDBRANCH  28  29
ENDBRANCH  19  28
ENDBRANCH  11  16
BRANCH   7  31
ATOM     31  O   UNL     1      16.811  13.559  43.222  0.00  0.00    +0.000 OA
ATOM     32  H   UNL     1      17.424  13.399  43.993  0.00  0.00    +0.000 HD
ENDBRANCH   7  31
BRANCH   5  33
ATOM     33  O   UNL     1      15.974  18.664  43.005  0.00  0.00    +0.000 OA
ATOM     34  H   UNL     1      15.831  18.493  42.034  0.00  0.00    +0.000 HD
ENDBRANCH   5  33
BRANCH  14  35
ATOM     35  C   UNL     1      11.729  20.355  44.823  0.00  0.00    +0.000 C 
BRANCH  35  36
ATOM     36  O   UNL     1      11.172  20.811  43.593  0.00  0.00    +0.000 OA
ATOM     37  H   UNL     1      11.490  20.234  42.884  0.00  0.00    +0.000 HD
ENDBRANCH  35  36
ENDBRANCH  14  35
TORSDOF 10
ENDMDL
