MODEL 1
REMARK VINA RESULT:    -5.868      0.000      0.000
REMARK INTER + INTRA:         -10.736
REMARK INTER:                  -8.956
REMARK INTRA:                  -1.780
REMARK UNBOUND:                -1.780
REMARK  Name = opt84.pdb
REMARK  12 active torsions:
REMARK  status: ('A' for Active; 'I' for Inactive)
REMARK    1  A    between atoms: C_2  and  C_3
REMARK    2  A    between atoms: C_2  and  C_4
REMARK    3  A    between atoms: C_4  and  C_6
REMARK    4  A    between atoms: C_5  and  C_7
REMARK    5  A    between atoms: C_6  and  C_9
REMARK    6  A    between atoms: C_12  and  C_15
REMARK    7  A    between atoms: C_13  and  O_16
REMARK    8  A    between atoms: O_16  and  C_20
REMARK    9  A    between atoms: C_17  and  O_21
REMARK   10  A    between atoms: C_22  and  O_24
REMARK   11  A    between atoms: O_24  and  C_26
REMARK   12  A    between atoms: C_25  and  O_27
REMARK                            x       y       z     vdW  Elec       q    Type
REMARK                         _______ _______ _______ _____ _____    ______ ____
ROOT
ATOM      1  C   UNL     1      10.341  12.753  42.536  0.00  0.00    +0.000 C 
ENDROOT
BRANCH   1   2
ATOM      2  C   UNL     1      11.371  11.682  42.831  0.00  0.00    +0.000 C 
ATOM      3  O   UNL     1      11.159  10.514  42.572  0.00  0.00    +0.000 OA
BRANCH   2   4
ATOM      4  C   UNL     1      12.639  12.128  43.454  0.00  0.00    +0.000 C 
ATOM      5  C   UNL     1      13.648  12.762  42.836  0.00  0.00    +0.000 C 
BRANCH   5   6
ATOM      6  C   UNL     1      14.926  13.231  43.408  0.00  0.00    +0.000 A 
ATOM      7  C   UNL     1      15.900  13.823  42.598  0.00  0.00    +0.000 A 
ATOM      8  C   UNL     1      15.176  13.048  44.768  0.00  0.00    +0.000 A 
ATOM      9  C   UNL     1      17.119  14.231  43.150  0.00  0.00    +0.000 A 
ATOM     10  C   UNL     1      16.391  13.447  45.319  0.00  0.00    +0.000 A 
ATOM     11  C   UNL     1      17.360  14.035  44.511  0.00  0.00    +0.000 A 
BRANCH  11  12
ATOM     12  O   UNL     1      18.554  14.419  45.035  0.00  0.00    +0.000 OA
ATOM     13  H   UNL     1      18.524  14.176  45.983  0.00  0.00    +0.000 HD
ENDBRANCH  11  12
BRANCH   9  14
ATOM     14  O   UNL     1      18.125  14.827  42.400  0.00  0.00    +0.000 OA
ATOM     15  C   UNL     1      18.477  14.400  41.063  0.00  0.00    +0.000 C 
ENDBRANCH   9  14
ENDBRANCH   5   6
ENDBRANCH   2   4
ENDBRANCH   1   2
BRANCH   1  17
ATOM     16  O   UNL     1       9.201  13.459  44.516  0.00  0.00    +0.000 OA
ATOM     17  C   UNL     1      10.096  13.671  43.719  0.00  0.00    +0.000 C 
BRANCH  17  18
ATOM     18  C   UNL     1      10.933  14.889  43.800  0.00  0.00    +0.000 C 
ATOM     19  C   UNL     1      11.786  15.220  44.780  0.00  0.00    +0.000 C 
BRANCH  19  20
ATOM     20  C   UNL     1      12.584  16.456  44.853  0.00  0.00    +0.000 A 
ATOM     21  C   UNL     1      13.974  16.388  44.952  0.00  0.00    +0.000 A 
ATOM     22  C   UNL     1      11.949  17.695  44.767  0.00  0.00    +0.000 A 
ATOM     23  C   UNL     1      14.733  17.564  44.951  0.00  0.00    +0.000 A 
ATOM     24  C   UNL     1      12.701  18.867  44.770  0.00  0.00    +0.000 A 
ATOM     25  C   UNL     1      14.088  18.797  44.856  0.00  0.00    +0.000 A 
BRANCH  23  26
ATOM     26  O   UNL     1      16.120  17.564  45.025  0.00  0.00    +0.000 OA
ATOM     27  C   UNL     1      16.849  17.302  46.246  0.00  0.00    +0.000 C 
ENDBRANCH  23  26
BRANCH  25  28
ATOM     28  O   UNL     1      14.839  19.930  44.832  0.00  0.00    +0.000 OA
ATOM     29  H   UNL     1      15.726  19.649  44.530  0.00  0.00    +0.000 HD
ENDBRANCH  25  28
ENDBRANCH  19  20
ENDBRANCH  17  18
ENDBRANCH   1  17
TORSDOF 10
ENDMDL
MODEL 2
REMARK VINA RESULT:    -5.803      2.530      6.061
REMARK INTER + INTRA:         -10.636
REMARK INTER:                  -8.965
REMARK INTRA:                  -1.672
REMARK UNBOUND:                -1.780
REMARK  Name = opt84.pdb
REMARK  12 active torsions:
REMARK  status: ('A' for Active; 'I' for Inactive)
REMARK    1  A    between atoms: C_2  and  C_3
REMARK    2  A    between atoms: C_2  and  C_4
REMARK    3  A    between atoms: C_4  and  C_6
REMARK    4  A    between atoms: C_5  and  C_7
REMARK    5  A    between atoms: C_6  and  C_9
REMARK    6  A    between atoms: C_12  and  C_15
REMARK    7  A    between atoms: C_13  and  O_16
REMARK    8  A    between atoms: O_16  and  C_20
REMARK    9  A    between atoms: C_17  and  O_21
REMARK   10  A    between atoms: C_22  and  O_24
REMARK   11  A    between atoms: O_24  and  C_26
REMARK   12  A    between atoms: C_25  and  O_27
REMARK                            x       y       z     vdW  Elec       q    Type
REMARK                         _______ _______ _______ _____ _____    ______ ____
ROOT
ATOM      1  C   UNL     1      10.800  18.782  42.688  0.00  0.00    +0.000 C 
ENDROOT
BRANCH   1   2
ATOM      2  C   UNL     1      11.741  18.838  43.874  0.00  0.00    +0.000 C 
ATOM      3  O   UNL     1      11.884  19.858  44.519  0.00  0.00    +0.000 OA
BRANCH   2   4
ATOM      4  C   UNL     1      12.478  17.596  44.201  0.00  0.00    +0.000 C 
ATOM      5  C   UNL     1      12.494  16.467  43.475  0.00  0.00    +0.000 C 
BRANCH   5   6
ATOM      6  C   UNL     1      13.213  15.206  43.751  0.00  0.00    +0.000 A 
ATOM      7  C   UNL     1      14.363  14.864  43.033  0.00  0.00    +0.000 A 
ATOM      8  C   UNL     1      12.716  14.332  44.718  0.00  0.00    +0.000 A 
ATOM      9  C   UNL     1      15.013  13.650  43.284  0.00  0.00    +0.000 A 
ATOM     10  C   UNL     1      13.356  13.120  44.965  0.00  0.00    +0.000 A 
ATOM     11  C   UNL     1      14.500  12.781  44.248  0.00  0.00    +0.000 A 
BRANCH  11  12
ATOM     12  O   UNL     1      15.128  11.596  44.473  0.00  0.00    +0.000 OA
ATOM     13  H   UNL     1      15.031  11.417  45.430  0.00  0.00    +0.000 HD
ENDBRANCH  11  12
BRANCH   9  14
ATOM     14  O   UNL     1      16.159  13.255  42.607  0.00  0.00    +0.000 OA
ATOM     15  C   UNL     1      17.345  14.078  42.505  0.00  0.00    +0.000 C 
ENDBRANCH   9  14
ENDBRANCH   5   6
ENDBRANCH   2   4
ENDBRANCH   1   2
BRANCH   1  17
ATOM     16  O   UNL     1       8.691  19.470  43.582  0.00  0.00    +0.000 OA
ATOM     17  C   UNL     1       9.354  18.571  43.097  0.00  0.00    +0.000 C 
BRANCH  17  18
ATOM     18  C   UNL     1       8.822  17.196  42.972  0.00  0.00    +0.000 C 
ATOM     19  C   UNL     1       9.076  16.154  43.777  0.00  0.00    +0.000 C 
BRANCH  19  20
ATOM     20  C   UNL     1       8.559  14.785  43.611  0.00  0.00    +0.000 A 
ATOM     21  C   UNL     1       9.401  13.768  43.157  0.00  0.00    +0.000 A 
ATOM     22  C   UNL     1       7.241  14.496  43.962  0.00  0.00    +0.000 A 
ATOM     23  C   UNL     1       8.926  12.455  43.067  0.00  0.00    +0.000 A 
ATOM     24  C   UNL     1       6.763  13.191  43.870  0.00  0.00    +0.000 A 
ATOM     25  C   UNL     1       7.607  12.176  43.429  0.00  0.00    +0.000 A 
BRANCH  23  26
ATOM     26  O   UNL     1       9.717  11.396  42.645  0.00  0.00    +0.000 OA
ATOM     27  C   UNL     1      11.135  11.308  42.916  0.00  0.00    +0.000 C 
ENDBRANCH  23  26
BRANCH  25  28
ATOM     28  O   UNL     1       7.166  10.893  43.360  0.00  0.00    +0.000 OA
ATOM     29  H   UNL     1       6.498  10.808  44.070  0.00  0.00    +0.000 HD
ENDBRANCH  25  28
ENDBRANCH  19  20
ENDBRANCH  17  18
ENDBRANCH   1  17
TORSDOF 10
ENDMDL
MODEL 3
REMARK VINA RESULT:    -5.744      1.267      5.167
REMARK INTER + INTRA:         -10.546
REMARK INTER:                  -8.781
REMARK INTRA:                  -1.764
REMARK UNBOUND:                -1.780
REMARK  Name = opt84.pdb
REMARK  12 active torsions:
REMARK  status: ('A' for Active; 'I' for Inactive)
REMARK    1  A    between atoms: C_2  and  C_3
REMARK    2  A    between atoms: C_2  and  C_4
REMARK    3  A    between atoms: C_4  and  C_6
REMARK    4  A    between atoms: C_5  and  C_7
REMARK    5  A    between atoms: C_6  and  C_9
REMARK    6  A    between atoms: C_12  and  C_15
REMARK    7  A    between atoms: C_13  and  O_16
REMARK    8  A    between atoms: O_16  and  C_20
REMARK    9  A    between atoms: C_17  and  O_21
REMARK   10  A    between atoms: C_22  and  O_24
REMARK   11  A    between atoms: O_24  and  C_26
REMARK   12  A    between atoms: C_25  and  O_27
REMARK                            x       y       z     vdW  Elec       q    Type
REMARK                         _______ _______ _______ _____ _____    ______ ____
ROOT
ATOM      1  C   UNL     1      10.375  12.209  42.627  0.00  0.00    +0.000 C 
ENDROOT
BRANCH   1   2
ATOM      2  C   UNL     1       9.498  13.403  42.311  0.00  0.00    +0.000 C 
ATOM      3  O   UNL     1       8.369  13.263  41.884  0.00  0.00    +0.000 OA
BRANCH   2   4
ATOM      4  C   UNL     1      10.087  14.742  42.542  0.00  0.00    +0.000 C 
ATOM      5  C   UNL     1      10.614  15.191  43.693  0.00  0.00    +0.000 C 
BRANCH   5   6
ATOM      6  C   UNL     1      11.216  16.510  43.975  0.00  0.00    +0.000 A 
ATOM      7  C   UNL     1      12.338  16.625  44.799  0.00  0.00    +0.000 A 
ATOM      8  C   UNL     1      10.632  17.658  43.438  0.00  0.00    +0.000 A 
ATOM      9  C   UNL     1      12.876  17.885  45.084  0.00  0.00    +0.000 A 
ATOM     10  C   UNL     1      11.160  18.914  43.725  0.00  0.00    +0.000 A 
ATOM     11  C   UNL     1      12.278  19.026  44.547  0.00  0.00    +0.000 A 
BRANCH  11  12
ATOM     12  O   UNL     1      12.796  20.248  44.843  0.00  0.00    +0.000 OA
ATOM     13  H   UNL     1      13.174  20.591  44.008  0.00  0.00    +0.000 HD
ENDBRANCH  11  12
BRANCH   9  14
ATOM     14  O   UNL     1      13.990  18.065  45.893  0.00  0.00    +0.000 OA
ATOM     15  C   UNL     1      15.328  17.679  45.498  0.00  0.00    +0.000 C 
ENDBRANCH   9  14
ENDBRANCH   5   6
ENDBRANCH   2   4
ENDBRANCH   1   2
BRANCH   1  17
ATOM     16  O   UNL     1      11.390  11.461  40.594  0.00  0.00    +0.000 OA
ATOM     17  C   UNL     1      11.525  12.052  41.650  0.00  0.00    +0.000 C 
BRANCH  17  18
ATOM     18  C   UNL     1      12.843  12.564  42.087  0.00  0.00    +0.000 C 
ATOM     19  C   UNL     1      13.269  12.729  43.348  0.00  0.00    +0.000 C 
BRANCH  19  20
ATOM     20  C   UNL     1      14.574  13.273  43.758  0.00  0.00    +0.000 A 
ATOM     21  C   UNL     1      15.420  13.853  42.811  0.00  0.00    +0.000 A 
ATOM     22  C   UNL     1      14.939  13.257  45.104  0.00  0.00    +0.000 A 
ATOM     23  C   UNL     1      16.629  14.431  43.214  0.00  0.00    +0.000 A 
ATOM     24  C   UNL     1      16.143  13.828  45.508  0.00  0.00    +0.000 A 
ATOM     25  C   UNL     1      16.980  14.417  44.565  0.00  0.00    +0.000 A 
BRANCH  23  26
ATOM     26  O   UNL     1      17.504  15.043  42.326  0.00  0.00    +0.000 OA
ATOM     27  C   UNL     1      18.034  14.383  41.154  0.00  0.00    +0.000 C 
ENDBRANCH  23  26
BRANCH  25  28
ATOM     28  O   UNL     1      18.145  15.002  44.946  0.00  0.00    +0.000 OA
ATOM     29  H   UNL     1      18.384  15.609  44.215  0.00  0.00    +0.000 HD
ENDBRANCH  25  28
ENDBRANCH  19  20
ENDBRANCH  17  18
ENDBRANCH   1  17
TORSDOF 10
ENDMDL
MODEL 4
REMARK VINA RESULT:    -5.717      1.908      7.291
REMARK INTER + INTRA:         -10.505
REMARK INTER:                  -8.850
REMARK INTRA:                  -1.655
REMARK UNBOUND:                -1.780
REMARK  Name = opt84.pdb
REMARK  12 active torsions:
REMARK  status: ('A' for Active; 'I' for Inactive)
REMARK    1  A    between atoms: C_2  and  C_3
REMARK    2  A    between atoms: C_2  and  C_4
REMARK    3  A    between atoms: C_4  and  C_6
REMARK    4  A    between atoms: C_5  and  C_7
REMARK    5  A    between atoms: C_6  and  C_9
REMARK    6  A    between atoms: C_12  and  C_15
REMARK    7  A    between atoms: C_13  and  O_16
REMARK    8  A    between atoms: O_16  and  C_20
REMARK    9  A    between atoms: C_17  and  O_21
REMARK   10  A    between atoms: C_22  and  O_24
REMARK   11  A    between atoms: O_24  and  C_26
REMARK   12  A    between atoms: C_25  and  O_27
REMARK                            x       y       z     vdW  Elec       q    Type
REMARK                         _______ _______ _______ _____ _____    ______ ____
ROOT
ATOM      1  C   UNL     1      17.100  15.441  44.933  0.00  0.00    +0.000 C 
ENDROOT
BRANCH   1   2
ATOM      2  C   UNL     1      16.714  16.752  45.585  0.00  0.00    +0.000 C 
ATOM      3  O   UNL     1      17.323  17.185  46.543  0.00  0.00    +0.000 OA
BRANCH   2   4
ATOM      4  C   UNL     1      15.558  17.472  45.002  0.00  0.00    +0.000 C 
ATOM      5  C   UNL     1      14.268  17.304  45.332  0.00  0.00    +0.000 C 
BRANCH   5   6
ATOM      6  C   UNL     1      13.082  17.996  44.788  0.00  0.00    +0.000 A 
ATOM      7  C   UNL     1      12.038  17.276  44.200  0.00  0.00    +0.000 A 
ATOM      8  C   UNL     1      13.021  19.389  44.832  0.00  0.00    +0.000 A 
ATOM      9  C   UNL     1      10.937  17.949  43.659  0.00  0.00    +0.000 A 
ATOM     10  C   UNL     1      11.931  20.062  44.288  0.00  0.00    +0.000 A 
ATOM     11  C   UNL     1      10.893  19.343  43.702  0.00  0.00    +0.000 A 
BRANCH  11  12
ATOM     12  O   UNL     1       9.828  19.990  43.159  0.00  0.00    +0.000 OA
ATOM     13  H   UNL     1      10.138  20.895  42.951  0.00  0.00    +0.000 HD
ENDBRANCH  11  12
BRANCH   9  14
ATOM     14  O   UNL     1       9.868  17.291  43.065  0.00  0.00    +0.000 OA
ATOM     15  C   UNL     1       9.887  16.822  41.695  0.00  0.00    +0.000 C 
ENDBRANCH   9  14
ENDBRANCH   5   6
ENDBRANCH   2   4
ENDBRANCH   1   2
BRANCH   1  17
ATOM     16  O   UNL     1      16.721  13.659  46.483  0.00  0.00    +0.000 OA
ATOM     17  C   UNL     1      16.334  14.259  45.497  0.00  0.00    +0.000 C 
BRANCH  17  18
ATOM     18  C   UNL     1      15.150  13.809  44.732  0.00  0.00    +0.000 C 
ATOM     19  C   UNL     1      13.915  13.591  45.207  0.00  0.00    +0.000 C 
BRANCH  19  20
ATOM     20  C   UNL     1      12.760  13.110  44.431  0.00  0.00    +0.000 A 
ATOM     21  C   UNL     1      11.541  13.787  44.496  0.00  0.00    +0.000 A 
ATOM     22  C   UNL     1      12.903  12.009  43.587  0.00  0.00    +0.000 A 
ATOM     23  C   UNL     1      10.466  13.369  43.704  0.00  0.00    +0.000 A 
ATOM     24  C   UNL     1      11.835  11.588  42.800  0.00  0.00    +0.000 A 
ATOM     25  C   UNL     1      10.624  12.271  42.856  0.00  0.00    +0.000 A 
BRANCH  23  26
ATOM     26  O   UNL     1       9.235  14.011  43.706  0.00  0.00    +0.000 OA
ATOM     27  C   UNL     1       8.196  13.731  44.671  0.00  0.00    +0.000 C 
ENDBRANCH  23  26
BRANCH  25  28
ATOM     28  O   UNL     1       9.579  11.891  42.075  0.00  0.00    +0.000 OA
ATOM     29  H   UNL     1       8.782  12.002  42.632  0.00  0.00    +0.000 HD
ENDBRANCH  25  28
ENDBRANCH  19  20
ENDBRANCH  17  18
ENDBRANCH   1  17
TORSDOF 10
ENDMDL
MODEL 5
REMARK VINA RESULT:    -5.713      1.267      1.450
REMARK INTER + INTRA:         -10.498
REMARK INTER:                  -8.848
REMARK INTRA:                  -1.651
REMARK UNBOUND:                -1.780
REMARK  Name = opt84.pdb
REMARK  12 active torsions:
REMARK  status: ('A' for Active; 'I' for Inactive)
REMARK    1  A    between atoms: C_2  and  C_3
REMARK    2  A    between atoms: C_2  and  C_4
REMARK    3  A    between atoms: C_4  and  C_6
REMARK    4  A    between atoms: C_5  and  C_7
REMARK    5  A    between atoms: C_6  and  C_9
REMARK    6  A    between atoms: C_12  and  C_15
REMARK    7  A    between atoms: C_13  and  O_16
REMARK    8  A    between atoms: O_16  and  C_20
REMARK    9  A    between atoms: C_17  and  O_21
REMARK   10  A    between atoms: C_22  and  O_24
REMARK   11  A    between atoms: O_24  and  C_26
REMARK   12  A    between atoms: C_25  and  O_27
REMARK                            x       y       z     vdW  Elec       q    Type
REMARK                         _______ _______ _______ _____ _____    ______ ____
ROOT
ATOM      1  C   UNL     1      10.462  12.312  42.574  0.00  0.00    +0.000 C 
ENDROOT
BRANCH   1   2
ATOM      2  C   UNL     1      11.617  12.054  41.629  0.00  0.00    +0.000 C 
ATOM      3  O   UNL     1      11.445  11.507  40.557  0.00  0.00    +0.000 OA
BRANCH   2   4
ATOM      4  C   UNL     1      12.958  12.494  42.077  0.00  0.00    +0.000 C 
ATOM      5  C   UNL     1      13.251  13.087  43.246  0.00  0.00    +0.000 C 
BRANCH   5   6
ATOM      6  C   UNL     1      14.566  13.539  43.743  0.00  0.00    +0.000 A 
ATOM      7  C   UNL     1      15.480  14.162  42.889  0.00  0.00    +0.000 A 
ATOM      8  C   UNL     1      14.910  13.309  45.076  0.00  0.00    +0.000 A 
ATOM      9  C   UNL     1      16.735  14.554  43.368  0.00  0.00    +0.000 A 
ATOM     10  C   UNL     1      16.160  13.692  45.554  0.00  0.00    +0.000 A 
ATOM     11  C   UNL     1      17.070  14.311  44.701  0.00  0.00    +0.000 A 
BRANCH  11  12
ATOM     12  O   UNL     1      18.298  14.679  45.154  0.00  0.00    +0.000 OA
ATOM     13  H   UNL     1      18.209  15.608  45.451  0.00  0.00    +0.000 HD
ENDBRANCH  11  12
BRANCH   9  14
ATOM     14  O   UNL     1      17.685  15.179  42.571  0.00  0.00    +0.000 OA
ATOM     15  C   UNL     1      18.444  14.487  41.550  0.00  0.00    +0.000 C 
ENDBRANCH   9  14
ENDBRANCH   5   6
ENDBRANCH   2   4
ENDBRANCH   1   2
BRANCH   1  17
ATOM     16  O   UNL     1       8.622  13.436  41.539  0.00  0.00    +0.000 OA
ATOM     17  C   UNL     1       9.649  13.533  42.186  0.00  0.00    +0.000 C 
BRANCH  17  18
ATOM     18  C   UNL     1      10.216  14.851  42.546  0.00  0.00    +0.000 C 
ATOM     19  C   UNL     1      10.784  15.197  43.711  0.00  0.00    +0.000 C 
BRANCH  19  20
ATOM     20  C   UNL     1      11.312  16.528  44.056  0.00  0.00    +0.000 A 
ATOM     21  C   UNL     1      12.436  16.645  44.874  0.00  0.00    +0.000 A 
ATOM     22  C   UNL     1      10.718  17.669  43.517  0.00  0.00    +0.000 A 
ATOM     23  C   UNL     1      12.977  17.907  45.144  0.00  0.00    +0.000 A 
ATOM     24  C   UNL     1      11.250  18.927  43.786  0.00  0.00    +0.000 A 
ATOM     25  C   UNL     1      12.379  19.041  44.592  0.00  0.00    +0.000 A 
BRANCH  23  26
ATOM     26  O   UNL     1      14.105  18.091  45.931  0.00  0.00    +0.000 OA
ATOM     27  C   UNL     1      15.447  17.801  45.474  0.00  0.00    +0.000 C 
ENDBRANCH  23  26
BRANCH  25  28
ATOM     28  O   UNL     1      12.928  20.259  44.842  0.00  0.00    +0.000 OA
ATOM     29  H   UNL     1      13.518  20.127  45.612  0.00  0.00    +0.000 HD
ENDBRANCH  25  28
ENDBRANCH  19  20
ENDBRANCH  17  18
ENDBRANCH   1  17
TORSDOF 10
ENDMDL
MODEL 6
REMARK VINA RESULT:    -5.697      0.657      4.803
REMARK INTER + INTRA:         -10.474
REMARK INTER:                  -8.588
REMARK INTRA:                  -1.887
REMARK UNBOUND:                -1.780
REMARK  Name = opt84.pdb
REMARK  12 active torsions:
REMARK  status: ('A' for Active; 'I' for Inactive)
REMARK    1  A    between atoms: C_2  and  C_3
REMARK    2  A    between atoms: C_2  and  C_4
REMARK    3  A    between atoms: C_4  and  C_6
REMARK    4  A    between atoms: C_5  and  C_7
REMARK    5  A    between atoms: C_6  and  C_9
REMARK    6  A    between atoms: C_12  and  C_15
REMARK    7  A    between atoms: C_13  and  O_16
REMARK    8  A    between atoms: O_16  and  C_20
REMARK    9  A    between atoms: C_17  and  O_21
REMARK   10  A    between atoms: C_22  and  O_24
REMARK   11  A    between atoms: O_24  and  C_26
REMARK   12  A    between atoms: C_25  and  O_27
REMARK                            x       y       z     vdW  Elec       q    Type
REMARK                         _______ _______ _______ _____ _____    ______ ____
ROOT
ATOM      1  C   UNL     1      10.362  12.767  42.757  0.00  0.00    +0.000 C 
ENDROOT
BRANCH   1   2
ATOM      2  C   UNL     1      10.109  13.745  43.886  0.00  0.00    +0.000 C 
ATOM      3  O   UNL     1       9.348  13.476  44.795  0.00  0.00    +0.000 OA
BRANCH   2   4
ATOM      4  C   UNL     1      10.825  15.039  43.822  0.00  0.00    +0.000 C 
ATOM      5  C   UNL     1      11.714  15.501  44.716  0.00  0.00    +0.000 C 
BRANCH   5   6
ATOM      6  C   UNL     1      12.458  16.777  44.698  0.00  0.00    +0.000 A 
ATOM      7  C   UNL     1      13.839  16.805  44.912  0.00  0.00    +0.000 A 
ATOM      8  C   UNL     1      11.765  17.971  44.498  0.00  0.00    +0.000 A 
ATOM      9  C   UNL     1      14.524  18.025  44.926  0.00  0.00    +0.000 A 
ATOM     10  C   UNL     1      12.442  19.187  44.518  0.00  0.00    +0.000 A 
ATOM     11  C   UNL     1      13.817  19.213  44.733  0.00  0.00    +0.000 A 
BRANCH  11  12
ATOM     12  O   UNL     1      14.487  20.396  44.764  0.00  0.00    +0.000 OA
ATOM     13  H   UNL     1      14.524  20.661  45.706  0.00  0.00    +0.000 HD
ENDBRANCH  11  12
BRANCH   9  14
ATOM     14  O   UNL     1      15.894  18.119  45.130  0.00  0.00    +0.000 OA
ATOM     15  C   UNL     1      16.505  18.082  46.442  0.00  0.00    +0.000 C 
ENDBRANCH   9  14
ENDBRANCH   5   6
ENDBRANCH   2   4
ENDBRANCH   1   2
BRANCH   1  17
ATOM     16  O   UNL     1      11.443  10.681  43.203  0.00  0.00    +0.000 OA
ATOM     17  C   UNL     1      11.564  11.877  43.011  0.00  0.00    +0.000 C 
BRANCH  17  18
ATOM     18  C   UNL     1      12.878  12.549  43.114  0.00  0.00    +0.000 C 
ATOM     19  C   UNL     1      13.646  12.663  44.207  0.00  0.00    +0.000 C 
BRANCH  19  20
ATOM     20  C   UNL     1      14.936  13.367  44.291  0.00  0.00    +0.000 A 
ATOM     21  C   UNL     1      15.545  13.853  43.134  0.00  0.00    +0.000 A 
ATOM     22  C   UNL     1      15.521  13.594  45.537  0.00  0.00    +0.000 A 
ATOM     23  C   UNL     1      16.737  14.582  43.224  0.00  0.00    +0.000 A 
ATOM     24  C   UNL     1      16.708  14.315  45.630  0.00  0.00    +0.000 A 
ATOM     25  C   UNL     1      17.308  14.811  44.476  0.00  0.00    +0.000 A 
BRANCH  23  26
ATOM     26  O   UNL     1      17.381  15.112  42.114  0.00  0.00    +0.000 OA
ATOM     27  C   UNL     1      18.195  14.321  41.217  0.00  0.00    +0.000 C 
ENDBRANCH  23  26
BRANCH  25  28
ATOM     28  O   UNL     1      18.452  15.540  44.552  0.00  0.00    +0.000 OA
ATOM     29  H   UNL     1      18.929  15.198  45.335  0.00  0.00    +0.000 HD
ENDBRANCH  25  28
ENDBRANCH  19  20
ENDBRANCH  17  18
ENDBRANCH   1  17
TORSDOF 10
ENDMDL
MODEL 7
REMARK VINA RESULT:    -5.614      2.479      6.703
REMARK INTER + INTRA:         -10.348
REMARK INTER:                  -8.723
REMARK INTRA:                  -1.624
REMARK UNBOUND:                -1.780
REMARK  Name = opt84.pdb
REMARK  12 active torsions:
REMARK  status: ('A' for Active; 'I' for Inactive)
REMARK    1  A    between atoms: C_2  and  C_3
REMARK    2  A    between atoms: C_2  and  C_4
REMARK    3  A    between atoms: C_4  and  C_6
REMARK    4  A    between atoms: C_5  and  C_7
REMARK    5  A    between atoms: C_6  and  C_9
REMARK    6  A    between atoms: C_12  and  C_15
REMARK    7  A    between atoms: C_13  and  O_16
REMARK    8  A    between atoms: O_16  and  C_20
REMARK    9  A    between atoms: C_17  and  O_21
REMARK   10  A    between atoms: C_22  and  O_24
REMARK   11  A    between atoms: O_24  and  C_26
REMARK   12  A    between atoms: C_25  and  O_27
REMARK                            x       y       z     vdW  Elec       q    Type
REMARK                         _______ _______ _______ _____ _____    ______ ____
ROOT
ATOM      1  C   UNL     1      10.832  18.825  42.366  0.00  0.00    +0.000 C 
ENDROOT
BRANCH   1   2
ATOM      2  C   UNL     1       9.387  18.459  42.635  0.00  0.00    +0.000 C 
ATOM      3  O   UNL     1       8.565  19.305  42.931  0.00  0.00    +0.000 OA
BRANCH   2   4
ATOM      4  C   UNL     1       9.029  17.026  42.526  0.00  0.00    +0.000 C 
ATOM      5  C   UNL     1       9.046  16.124  43.520  0.00  0.00    +0.000 C 
BRANCH   5   6
ATOM      6  C   UNL     1       8.696  14.690  43.467  0.00  0.00    +0.000 A 
ATOM      7  C   UNL     1       9.631  13.739  43.048  0.00  0.00    +0.000 A 
ATOM      8  C   UNL     1       7.405  14.288  43.809  0.00  0.00    +0.000 A 
ATOM      9  C   UNL     1       9.273  12.389  42.971  0.00  0.00    +0.000 A 
ATOM     10  C   UNL     1       7.043  12.945  43.726  0.00  0.00    +0.000 A 
ATOM     11  C   UNL     1       7.975  12.000  43.307  0.00  0.00    +0.000 A 
BRANCH  11  12
ATOM     12  O   UNL     1       7.631  10.688  43.213  0.00  0.00    +0.000 OA
ATOM     13  H   UNL     1       7.565  10.359  44.133  0.00  0.00    +0.000 HD
ENDBRANCH  11  12
BRANCH   9  14
ATOM     14  O   UNL     1      10.155  11.396  42.565  0.00  0.00    +0.000 OA
ATOM     15  C   UNL     1      11.592  11.503  42.711  0.00  0.00    +0.000 C 
ENDBRANCH   9  14
ENDBRANCH   5   6
ENDBRANCH   2   4
ENDBRANCH   1   2
BRANCH   1  17
ATOM     16  O   UNL     1      11.787  19.838  44.311  0.00  0.00    +0.000 OA
ATOM     17  C   UNL     1      11.677  18.837  43.627  0.00  0.00    +0.000 C 
BRANCH  17  18
ATOM     18  C   UNL     1      12.439  17.605  43.927  0.00  0.00    +0.000 C 
ATOM     19  C   UNL     1      12.382  16.438  43.270  0.00  0.00    +0.000 C 
BRANCH  19  20
ATOM     20  C   UNL     1      13.127  15.214  43.611  0.00  0.00    +0.000 A 
ATOM     21  C   UNL     1      14.248  14.846  42.866  0.00  0.00    +0.000 A 
ATOM     22  C   UNL     1      12.742  14.454  44.715  0.00  0.00    +0.000 A 
ATOM     23  C   UNL     1      14.995  13.721  43.234  0.00  0.00    +0.000 A 
ATOM     24  C   UNL     1      13.480  13.332  45.083  0.00  0.00    +0.000 A 
ATOM     25  C   UNL     1      14.605  12.974  44.346  0.00  0.00    +0.000 A 
BRANCH  23  26
ATOM     26  O   UNL     1      16.131  13.315  42.549  0.00  0.00    +0.000 OA
ATOM     27  C   UNL     1      17.366  14.069  42.543  0.00  0.00    +0.000 C 
ENDBRANCH  23  26
BRANCH  25  28
ATOM     28  O   UNL     1      15.352  11.898  44.707  0.00  0.00    +0.000 OA
ATOM     29  H   UNL     1      15.435  11.952  45.681  0.00  0.00    +0.000 HD
ENDBRANCH  25  28
ENDBRANCH  19  20
ENDBRANCH  17  18
ENDBRANCH   1  17
TORSDOF 10
ENDMDL
MODEL 8
REMARK VINA RESULT:    -5.610      1.004      5.234
REMARK INTER + INTRA:         -10.342
REMARK INTER:                  -8.537
REMARK INTRA:                  -1.805
REMARK UNBOUND:                -1.780
REMARK  Name = opt84.pdb
REMARK  12 active torsions:
REMARK  status: ('A' for Active; 'I' for Inactive)
REMARK    1  A    between atoms: C_2  and  C_3
REMARK    2  A    between atoms: C_2  and  C_4
REMARK    3  A    between atoms: C_4  and  C_6
REMARK    4  A    between atoms: C_5  and  C_7
REMARK    5  A    between atoms: C_6  and  C_9
REMARK    6  A    between atoms: C_12  and  C_15
REMARK    7  A    between atoms: C_13  and  O_16
REMARK    8  A    between atoms: O_16  and  C_20
REMARK    9  A    between atoms: C_17  and  O_21
REMARK   10  A    between atoms: C_22  and  O_24
REMARK   11  A    between atoms: O_24  and  C_26
REMARK   12  A    between atoms: C_25  and  O_27
REMARK                            x       y       z     vdW  Elec       q    Type
REMARK                         _______ _______ _______ _____ _____    ______ ____
ROOT
ATOM      1  C   UNL     1      11.068  12.610  42.653  0.00  0.00    +0.000 C 
ENDROOT
BRANCH   1   2
ATOM      2  C   UNL     1      10.558  13.613  43.667  0.00  0.00    +0.000 C 
ATOM      3  O   UNL     1       9.609  13.359  44.384  0.00  0.00    +0.000 OA
BRANCH   2   4
ATOM      4  C   UNL     1      11.264  14.913  43.735  0.00  0.00    +0.000 C 
ATOM      5  C   UNL     1      11.943  15.394  44.788  0.00  0.00    +0.000 C 
BRANCH   5   6
ATOM      6  C   UNL     1      12.666  16.677  44.907  0.00  0.00    +0.000 A 
ATOM      7  C   UNL     1      11.973  17.889  44.957  0.00  0.00    +0.000 A 
ATOM      8  C   UNL     1      14.062  16.676  44.934  0.00  0.00    +0.000 A 
ATOM      9  C   UNL     1      12.675  19.097  45.036  0.00  0.00    +0.000 A 
ATOM     10  C   UNL     1      14.763  17.876  45.005  0.00  0.00    +0.000 A 
ATOM     11  C   UNL     1      14.070  19.083  45.054  0.00  0.00    +0.000 A 
BRANCH  11  12
ATOM     12  O   UNL     1      14.745  20.262  45.113  0.00  0.00    +0.000 OA
ATOM     13  H   UNL     1      14.460  20.696  45.943  0.00  0.00    +0.000 HD
ENDBRANCH  11  12
BRANCH   9  14
ATOM     14  O   UNL     1      12.045  20.333  45.092  0.00  0.00    +0.000 OA
ATOM     15  C   UNL     1      11.531  21.016  43.923  0.00  0.00    +0.000 C 
ENDBRANCH   9  14
ENDBRANCH   5   6
ENDBRANCH   2   4
ENDBRANCH   1   2
BRANCH   1  17
ATOM     16  O   UNL     1      12.114  10.670  43.583  0.00  0.00    +0.000 OA
ATOM     17  C   UNL     1      12.248  11.806  43.167  0.00  0.00    +0.000 C 
BRANCH  17  18
ATOM     18  C   UNL     1      13.551  12.506  43.233  0.00  0.00    +0.000 C 
ATOM     19  C   UNL     1      14.282  12.752  44.329  0.00  0.00    +0.000 C 
BRANCH  19  20
ATOM     20  C   UNL     1      15.561  13.481  44.372  0.00  0.00    +0.000 A 
ATOM     21  C   UNL     1      16.143  13.944  43.191  0.00  0.00    +0.000 A 
ATOM     22  C   UNL     1      16.161  13.755  45.601  0.00  0.00    +0.000 A 
ATOM     23  C   UNL     1      17.323  14.696  43.241  0.00  0.00    +0.000 A 
ATOM     24  C   UNL     1      17.336  14.500  45.654  0.00  0.00    +0.000 A 
ATOM     25  C   UNL     1      17.909  14.972  44.477  0.00  0.00    +0.000 A 
BRANCH  23  26
ATOM     26  O   UNL     1      17.940  15.204  42.106  0.00  0.00    +0.000 OA
ATOM     27  C   UNL     1      18.442  14.370  41.036  0.00  0.00    +0.000 C 
ENDBRANCH  23  26
BRANCH  25  28
ATOM     28  O   UNL     1      19.040  15.723  44.513  0.00  0.00    +0.000 OA
ATOM     29  H   UNL     1      18.751  16.640  44.333  0.00  0.00    +0.000 HD
ENDBRANCH  25  28
ENDBRANCH  19  20
ENDBRANCH  17  18
ENDBRANCH   1  17
TORSDOF 10
ENDMDL
MODEL 9
REMARK VINA RESULT:    -5.526      2.342      7.577
REMARK INTER + INTRA:         -10.213
REMARK INTER:                  -8.542
REMARK INTRA:                  -1.671
REMARK UNBOUND:                -1.780
REMARK  Name = opt84.pdb
REMARK  12 active torsions:
REMARK  status: ('A' for Active; 'I' for Inactive)
REMARK    1  A    between atoms: C_2  and  C_3
REMARK    2  A    between atoms: C_2  and  C_4
REMARK    3  A    between atoms: C_4  and  C_6
REMARK    4  A    between atoms: C_5  and  C_7
REMARK    5  A    between atoms: C_6  and  C_9
REMARK    6  A    between atoms: C_12  and  C_15
REMARK    7  A    between atoms: C_13  and  O_16
REMARK    8  A    between atoms: O_16  and  C_20
REMARK    9  A    between atoms: C_17  and  O_21
REMARK   10  A    between atoms: C_22  and  O_24
REMARK   11  A    between atoms: O_24  and  C_26
REMARK   12  A    between atoms: C_25  and  O_27
REMARK                            x       y       z     vdW  Elec       q    Type
REMARK                         _______ _______ _______ _____ _____    ______ ____
ROOT
ATOM      1  C   UNL     1      12.422  19.103  44.498  0.00  0.00    +0.000 C 
ENDROOT
BRANCH   1   2
ATOM      2  C   UNL     1      11.465  18.858  43.350  0.00  0.00    +0.000 C 
ATOM      3  O   UNL     1      11.520  19.517  42.330  0.00  0.00    +0.000 OA
BRANCH   2   4
ATOM      4  C   UNL     1      10.459  17.787  43.535  0.00  0.00    +0.000 C 
ATOM      5  C   UNL     1      10.562  16.518  43.109  0.00  0.00    +0.000 C 
BRANCH   5   6
ATOM      6  C   UNL     1       9.596  15.412  43.271  0.00  0.00    +0.000 A 
ATOM      7  C   UNL     1       8.418  15.374  42.520  0.00  0.00    +0.000 A 
ATOM      8  C   UNL     1       9.849  14.414  44.212  0.00  0.00    +0.000 A 
ATOM      9  C   UNL     1       7.497  14.338  42.709  0.00  0.00    +0.000 A 
ATOM     10  C   UNL     1       8.931  13.386  44.409  0.00  0.00    +0.000 A 
ATOM     11  C   UNL     1       7.758  13.350  43.660  0.00  0.00    +0.000 A 
BRANCH  11  12
ATOM     12  O   UNL     1       6.850  12.356  43.850  0.00  0.00    +0.000 OA
ATOM     13  H   UNL     1       7.234  11.555  43.438  0.00  0.00    +0.000 HD
ENDBRANCH  11  12
BRANCH   9  14
ATOM     14  O   UNL     1       6.311  14.241  41.993  0.00  0.00    +0.000 OA
ATOM     15  C   UNL     1       6.045  15.005  40.793  0.00  0.00    +0.000 C 
ENDBRANCH   9  14
ENDBRANCH   5   6
ENDBRANCH   2   4
ENDBRANCH   1   2
BRANCH   1  17
ATOM     16  O   UNL     1      14.704  19.158  43.784  0.00  0.00    +0.000 OA
ATOM     17  C   UNL     1      13.794  18.501  44.254  0.00  0.00    +0.000 C 
BRANCH  17  18
ATOM     18  C   UNL     1      13.941  17.053  44.522  0.00  0.00    +0.000 C 
ATOM     19  C   UNL     1      14.109  16.076  43.619  0.00  0.00    +0.000 C 
BRANCH  19  20
ATOM     20  C   UNL     1      14.219  14.637  43.910  0.00  0.00    +0.000 A 
ATOM     21  C   UNL     1      13.140  13.787  43.663  0.00  0.00    +0.000 A 
ATOM     22  C   UNL     1      15.425  14.117  44.381  0.00  0.00    +0.000 A 
ATOM     23  C   UNL     1      13.272  12.410  43.875  0.00  0.00    +0.000 A 
ATOM     24  C   UNL     1      15.558  12.748  44.597  0.00  0.00    +0.000 A 
ATOM     25  C   UNL     1      14.485  11.900  44.338  0.00  0.00    +0.000 A 
BRANCH  23  26
ATOM     26  O   UNL     1      12.245  11.509  43.628  0.00  0.00    +0.000 OA
ATOM     27  C   UNL     1      11.470  11.505  42.407  0.00  0.00    +0.000 C 
ENDBRANCH  23  26
BRANCH  25  28
ATOM     28  O   UNL     1      14.607  10.559  44.517  0.00  0.00    +0.000 OA
ATOM     29  H   UNL     1      14.307  10.155  43.677  0.00  0.00    +0.000 HD
ENDBRANCH  25  28
ENDBRANCH  19  20
ENDBRANCH  17  18
ENDBRANCH   1  17
TORSDOF 10
ENDMDL
MODEL 10
REMARK VINA RESULT:    -5.494      1.339      2.293
REMARK INTER + INTRA:         -10.164
REMARK INTER:                  -8.551
REMARK INTRA:                  -1.614
REMARK UNBOUND:                -1.780
REMARK  Name = opt84.pdb
REMARK  12 active torsions:
REMARK  status: ('A' for Active; 'I' for Inactive)
REMARK    1  A    between atoms: C_2  and  C_3
REMARK    2  A    between atoms: C_2  and  C_4
REMARK    3  A    between atoms: C_4  and  C_6
REMARK    4  A    between atoms: C_5  and  C_7
REMARK    5  A    between atoms: C_6  and  C_9
REMARK    6  A    between atoms: C_12  and  C_15
REMARK    7  A    between atoms: C_13  and  O_16
REMARK    8  A    between atoms: O_16  and  C_20
REMARK    9  A    between atoms: C_17  and  O_21
REMARK   10  A    between atoms: C_22  and  O_24
REMARK   11  A    between atoms: O_24  and  C_26
REMARK   12  A    between atoms: C_25  and  O_27
REMARK                            x       y       z     vdW  Elec       q    Type
REMARK                         _______ _______ _______ _____ _____    ______ ____
ROOT
ATOM      1  C   UNL     1       9.921  12.442  42.365  0.00  0.00    +0.000 C 
ENDROOT
BRANCH   1   2
ATOM      2  C   UNL     1      11.085  11.542  42.724  0.00  0.00    +0.000 C 
ATOM      3  O   UNL     1      10.927  10.352  42.916  0.00  0.00    +0.000 OA
BRANCH   2   4
ATOM      4  C   UNL     1      12.415  12.183  42.835  0.00  0.00    +0.000 C 
ATOM      5  C   UNL     1      12.955  12.706  43.947  0.00  0.00    +0.000 C 
BRANCH   5   6
ATOM      6  C   UNL     1      14.274  13.350  44.114  0.00  0.00    +0.000 A 
ATOM      7  C   UNL     1      14.961  13.874  43.015  0.00  0.00    +0.000 A 
ATOM      8  C   UNL     1      14.855  13.403  45.381  0.00  0.00    +0.000 A 
ATOM      9  C   UNL     1      16.224  14.450  43.185  0.00  0.00    +0.000 A 
ATOM     10  C   UNL     1      16.115  13.970  45.553  0.00  0.00    +0.000 A 
ATOM     11  C   UNL     1      16.797  14.490  44.457  0.00  0.00    +0.000 A 
BRANCH  11  12
ATOM     12  O   UNL     1      18.033  15.036  44.610  0.00  0.00    +0.000 OA
ATOM     13  H   UNL     1      18.423  15.079  43.714  0.00  0.00    +0.000 HD
ENDBRANCH  11  12
BRANCH   9  14
ATOM     14  O   UNL     1      16.955  14.990  42.134  0.00  0.00    +0.000 OA
ATOM     15  C   UNL     1      17.430  14.207  41.013  0.00  0.00    +0.000 C 
ENDBRANCH   9  14
ENDBRANCH   5   6
ENDBRANCH   2   4
ENDBRANCH   1   2
BRANCH   1  17
ATOM     16  O   UNL     1       8.274  12.768  44.069  0.00  0.00    +0.000 OA
ATOM     17  C   UNL     1       9.324  13.137  43.575  0.00  0.00    +0.000 C 
BRANCH  17  18
ATOM     18  C   UNL     1      10.027  14.344  44.062  0.00  0.00    +0.000 C 
ATOM     19  C   UNL     1      10.646  15.275  43.321  0.00  0.00    +0.000 C 
BRANCH  19  20
ATOM     20  C   UNL     1      11.368  16.451  43.833  0.00  0.00    +0.000 A 
ATOM     21  C   UNL     1      10.970  17.735  43.460  0.00  0.00    +0.000 A 
ATOM     22  C   UNL     1      12.417  16.280  44.736  0.00  0.00    +0.000 A 
ATOM     23  C   UNL     1      11.614  18.853  44.002  0.00  0.00    +0.000 A 
ATOM     24  C   UNL     1      13.063  17.389  45.275  0.00  0.00    +0.000 A 
ATOM     25  C   UNL     1      12.656  18.670  44.912  0.00  0.00    +0.000 A 
BRANCH  23  26
ATOM     26  O   UNL     1      11.252  20.156  43.690  0.00  0.00    +0.000 OA
ATOM     27  C   UNL     1      11.583  20.791  42.433  0.00  0.00    +0.000 C 
ENDBRANCH  23  26
BRANCH  25  28
ATOM     28  O   UNL     1      13.258  19.763  45.450  0.00  0.00    +0.000 OA
ATOM     29  H   UNL     1      12.528  20.336  45.761  0.00  0.00    +0.000 HD
ENDBRANCH  25  28
ENDBRANCH  19  20
ENDBRANCH  17  18
ENDBRANCH   1  17
TORSDOF 10
ENDMDL
MODEL 11
REMARK VINA RESULT:    -5.492      1.505      2.531
REMARK INTER + INTRA:         -10.161
REMARK INTER:                  -8.416
REMARK INTRA:                  -1.744
REMARK UNBOUND:                -1.780
REMARK  Name = opt84.pdb
REMARK  12 active torsions:
REMARK  status: ('A' for Active; 'I' for Inactive)
REMARK    1  A    between atoms: C_2  and  C_3
REMARK    2  A    between atoms: C_2  and  C_4
REMARK    3  A    between atoms: C_4  and  C_6
REMARK    4  A    between atoms: C_5  and  C_7
REMARK    5  A    between atoms: C_6  and  C_9
REMARK    6  A    between atoms: C_12  and  C_15
REMARK    7  A    between atoms: C_13  and  O_16
REMARK    8  A    between atoms: O_16  and  C_20
REMARK    9  A    between atoms: C_17  and  O_21
REMARK   10  A    between atoms: C_22  and  O_24
REMARK   11  A    between atoms: O_24  and  C_26
REMARK   12  A    between atoms: C_25  and  O_27
REMARK                            x       y       z     vdW  Elec       q    Type
REMARK                         _______ _______ _______ _____ _____    ______ ____
ROOT
ATOM      1  C   UNL     1      12.375  12.634  43.261  0.00  0.00    +0.000 C 
ENDROOT
BRANCH   1   2
ATOM      2  C   UNL     1      13.489  11.865  43.942  0.00  0.00    +0.000 C 
ATOM      3  O   UNL     1      13.303  10.754  44.398  0.00  0.00    +0.000 OA
BRANCH   2   4
ATOM      4  C   UNL     1      14.807  12.535  44.027  0.00  0.00    +0.000 C 
ATOM      5  C   UNL     1      15.400  13.249  43.057  0.00  0.00    +0.000 C 
BRANCH   5   6
ATOM      6  C   UNL     1      16.706  13.939  43.091  0.00  0.00    +0.000 A 
ATOM      7  C   UNL     1      17.267  14.470  41.926  0.00  0.00    +0.000 A 
ATOM      8  C   UNL     1      17.401  14.030  44.297  0.00  0.00    +0.000 A 
ATOM      9  C   UNL     1      18.520  15.091  41.969  0.00  0.00    +0.000 A 
ATOM     10  C   UNL     1      18.652  14.641  44.342  0.00  0.00    +0.000 A 
ATOM     11  C   UNL     1      19.209  15.168  43.180  0.00  0.00    +0.000 A 
BRANCH  11  12
ATOM     12  O   UNL     1      20.434  15.758  43.210  0.00  0.00    +0.000 OA
ATOM     13  H   UNL     1      20.979  15.218  43.818  0.00  0.00    +0.000 HD
ENDBRANCH  11  12
BRANCH   9  14
ATOM     14  O   UNL     1      19.129  15.639  40.848  0.00  0.00    +0.000 OA
ATOM     15  C   UNL     1      18.977  15.096  39.515  0.00  0.00    +0.000 C 
ENDBRANCH   9  14
ENDBRANCH   5   6
ENDBRANCH   2   4
ENDBRANCH   1   2
BRANCH   1  17
ATOM     16  O   UNL     1      10.481  13.348  44.534  0.00  0.00    +0.000 OA
ATOM     17  C   UNL     1      11.636  13.557  44.212  0.00  0.00    +0.000 C 
BRANCH  17  18
ATOM     18  C   UNL     1      12.354  14.775  44.648  0.00  0.00    +0.000 C 
ATOM     19  C   UNL     1      12.921  15.704  43.865  0.00  0.00    +0.000 C 
BRANCH  19  20
ATOM     20  C   UNL     1      13.660  16.892  44.325  0.00  0.00    +0.000 A 
ATOM     21  C   UNL     1      13.057  18.150  44.289  0.00  0.00    +0.000 A 
ATOM     22  C   UNL     1      14.944  16.747  44.849  0.00  0.00    +0.000 A 
ATOM     23  C   UNL     1      13.736  19.266  44.791  0.00  0.00    +0.000 A 
ATOM     24  C   UNL     1      15.625  17.856  45.346  0.00  0.00    +0.000 A 
ATOM     25  C   UNL     1      15.017  19.108  45.321  0.00  0.00    +0.000 A 
BRANCH  23  26
ATOM     26  O   UNL     1      13.184  20.539  44.805  0.00  0.00    +0.000 OA
ATOM     27  C   UNL     1      11.762  20.787  44.887  0.00  0.00    +0.000 C 
ENDBRANCH  23  26
BRANCH  25  28
ATOM     28  O   UNL     1      15.656  20.195  45.827  0.00  0.00    +0.000 OA
ATOM     29  H   UNL     1      15.130  20.967  45.535  0.00  0.00    +0.000 HD
ENDBRANCH  25  28
ENDBRANCH  19  20
ENDBRANCH  17  18
ENDBRANCH   1  17
TORSDOF 10
ENDMDL
MODEL 12
REMARK VINA RESULT:    -5.430      1.919      2.460
REMARK INTER + INTRA:         -10.068
REMARK INTER:                  -8.273
REMARK INTRA:                  -1.795
REMARK UNBOUND:                -1.780
REMARK  Name = opt84.pdb
REMARK  12 active torsions:
REMARK  status: ('A' for Active; 'I' for Inactive)
REMARK    1  A    between atoms: C_2  and  C_3
REMARK    2  A    between atoms: C_2  and  C_4
REMARK    3  A    between atoms: C_4  and  C_6
REMARK    4  A    between atoms: C_5  and  C_7
REMARK    5  A    between atoms: C_6  and  C_9
REMARK    6  A    between atoms: C_12  and  C_15
REMARK    7  A    between atoms: C_13  and  O_16
REMARK    8  A    between atoms: O_16  and  C_20
REMARK    9  A    between atoms: C_17  and  O_21
REMARK   10  A    between atoms: C_22  and  O_24
REMARK   11  A    between atoms: O_24  and  C_26
REMARK   12  A    between atoms: C_25  and  O_27
REMARK                            x       y       z     vdW  Elec       q    Type
REMARK                         _______ _______ _______ _____ _____    ______ ____
ROOT
ATOM      1  C   UNL     1       7.902  13.250  43.472  0.00  0.00    +0.000 C 
ENDROOT
BRANCH   1   2
ATOM      2  C   UNL     1       9.109  12.764  42.697  0.00  0.00    +0.000 C 
ATOM      3  O   UNL     1       9.007  12.365  41.553  0.00  0.00    +0.000 OA
BRANCH   2   4
ATOM      4  C   UNL     1      10.411  12.792  43.402  0.00  0.00    +0.000 C 
ATOM      5  C   UNL     1      11.548  13.346  42.951  0.00  0.00    +0.000 C 
BRANCH   5   6
ATOM      6  C   UNL     1      12.867  13.407  43.612  0.00  0.00    +0.000 A 
ATOM      7  C   UNL     1      14.047  13.370  42.864  0.00  0.00    +0.000 A 
ATOM      8  C   UNL     1      12.933  13.466  45.005  0.00  0.00    +0.000 A 
ATOM      9  C   UNL     1      15.289  13.395  43.509  0.00  0.00    +0.000 A 
ATOM     10  C   UNL     1      14.167  13.483  45.650  0.00  0.00    +0.000 A 
ATOM     11  C   UNL     1      15.341  13.446  44.902  0.00  0.00    +0.000 A 
BRANCH  11  12
ATOM     12  O   UNL     1      16.551  13.452  45.522  0.00  0.00    +0.000 OA
ATOM     13  H   UNL     1      16.518  12.736  46.188  0.00  0.00    +0.000 HD
ENDBRANCH  11  12
BRANCH   9  14
ATOM     14  O   UNL     1      16.496  13.364  42.823  0.00  0.00    +0.000 OA
ATOM     15  C   UNL     1      16.853  14.325  41.801  0.00  0.00    +0.000 C 
ENDBRANCH   9  14
ENDBRANCH   5   6
ENDBRANCH   2   4
ENDBRANCH   1   2
BRANCH   1  17
ATOM     16  O   UNL     1       6.614  15.003  42.477  0.00  0.00    +0.000 OA
ATOM     17  C   UNL     1       7.562  14.699  43.178  0.00  0.00    +0.000 C 
BRANCH  17  18
ATOM     18  C   UNL     1       8.498  15.720  43.700  0.00  0.00    +0.000 C 
ATOM     19  C   UNL     1       9.393  16.431  43.000  0.00  0.00    +0.000 C 
BRANCH  19  20
ATOM     20  C   UNL     1      10.337  17.419  43.550  0.00  0.00    +0.000 A 
ATOM     21  C   UNL     1      11.449  16.995  44.279  0.00  0.00    +0.000 A 
ATOM     22  C   UNL     1      10.146  18.776  43.293  0.00  0.00    +0.000 A 
ATOM     23  C   UNL     1      12.380  17.931  44.742  0.00  0.00    +0.000 A 
ATOM     24  C   UNL     1      11.069  19.711  43.755  0.00  0.00    +0.000 A 
ATOM     25  C   UNL     1      12.184  19.286  44.471  0.00  0.00    +0.000 A 
BRANCH  23  26
ATOM     26  O   UNL     1      13.518  17.573  45.453  0.00  0.00    +0.000 OA
ATOM     27  C   UNL     1      14.689  16.991  44.835  0.00  0.00    +0.000 C 
ENDBRANCH  23  26
BRANCH  25  28
ATOM     28  O   UNL     1      13.108  20.182  44.904  0.00  0.00    +0.000 OA
ATOM     29  H   UNL     1      12.598  20.964  45.196  0.00  0.00    +0.000 HD
ENDBRANCH  25  28
ENDBRANCH  19  20
ENDBRANCH  17  18
ENDBRANCH   1  17
TORSDOF 10
ENDMDL
MODEL 13
REMARK VINA RESULT:    -5.420      2.402      6.975
REMARK INTER + INTRA:         -10.052
REMARK INTER:                  -8.437
REMARK INTRA:                  -1.615
REMARK UNBOUND:                -1.780
REMARK  Name = opt84.pdb
REMARK  12 active torsions:
REMARK  status: ('A' for Active; 'I' for Inactive)
REMARK    1  A    between atoms: C_2  and  C_3
REMARK    2  A    between atoms: C_2  and  C_4
REMARK    3  A    between atoms: C_4  and  C_6
REMARK    4  A    between atoms: C_5  and  C_7
REMARK    5  A    between atoms: C_6  and  C_9
REMARK    6  A    between atoms: C_12  and  C_15
REMARK    7  A    between atoms: C_13  and  O_16
REMARK    8  A    between atoms: O_16  and  C_20
REMARK    9  A    between atoms: C_17  and  O_21
REMARK   10  A    between atoms: C_22  and  O_24
REMARK   11  A    between atoms: O_24  and  C_26
REMARK   12  A    between atoms: C_25  and  O_27
REMARK                            x       y       z     vdW  Elec       q    Type
REMARK                         _______ _______ _______ _____ _____    ______ ____
ROOT
ATOM      1  C   UNL     1      14.368  12.421  42.478  0.00  0.00    +0.000 C 
ENDROOT
BRANCH   1   2
ATOM      2  C   UNL     1      15.207  13.593  42.945  0.00  0.00    +0.000 C 
ATOM      3  O   UNL     1      16.386  13.461  43.208  0.00  0.00    +0.000 OA
BRANCH   2   4
ATOM      4  C   UNL     1      14.519  14.899  43.070  0.00  0.00    +0.000 C 
ATOM      5  C   UNL     1      14.069  15.454  44.207  0.00  0.00    +0.000 C 
BRANCH   5   6
ATOM      6  C   UNL     1      13.383  16.750  44.388  0.00  0.00    +0.000 A 
ATOM      7  C   UNL     1      12.107  16.966  43.860  0.00  0.00    +0.000 A 
ATOM      8  C   UNL     1      14.035  17.780  45.066  0.00  0.00    +0.000 A 
ATOM      9  C   UNL     1      11.486  18.210  44.011  0.00  0.00    +0.000 A 
ATOM     10  C   UNL     1      13.423  19.022  45.211  0.00  0.00    +0.000 A 
ATOM     11  C   UNL     1      12.152  19.236  44.684  0.00  0.00    +0.000 A 
BRANCH  11  12
ATOM     12  O   UNL     1      11.548  20.447  44.812  0.00  0.00    +0.000 OA
ATOM     13  H   UNL     1      10.723  20.287  45.313  0.00  0.00    +0.000 HD
ENDBRANCH  11  12
BRANCH   9  14
ATOM     14  O   UNL     1      10.219  18.487  43.513  0.00  0.00    +0.000 OA
ATOM     15  C   UNL     1       9.753  18.018  42.226  0.00  0.00    +0.000 C 
ENDBRANCH   9  14
ENDBRANCH   5   6
ENDBRANCH   2   4
ENDBRANCH   1   2
BRANCH   1  17
ATOM     16  O   UNL     1      13.848  11.279  44.514  0.00  0.00    +0.000 OA
ATOM     17  C   UNL     1      13.433  11.904  43.555  0.00  0.00    +0.000 C 
BRANCH  17  18
ATOM     18  C   UNL     1      11.985  12.110  43.332  0.00  0.00    +0.000 C 
ATOM     19  C   UNL     1      11.258  13.184  43.673  0.00  0.00    +0.000 C 
BRANCH  19  20
ATOM     20  C   UNL     1       9.809  13.349  43.470  0.00  0.00    +0.000 A 
ATOM     21  C   UNL     1       9.031  12.266  43.059  0.00  0.00    +0.000 A 
ATOM     22  C   UNL     1       9.208  14.578  43.742  0.00  0.00    +0.000 A 
ATOM     23  C   UNL     1       7.644  12.409  42.933  0.00  0.00    +0.000 A 
ATOM     24  C   UNL     1       7.829  14.725  43.615  0.00  0.00    +0.000 A 
ATOM     25  C   UNL     1       7.053  13.641  43.217  0.00  0.00    +0.000 A 
BRANCH  23  26
ATOM     26  O   UNL     1       6.811  11.367  42.550  0.00  0.00    +0.000 OA
ATOM     27  C   UNL     1       6.448  10.278  43.431  0.00  0.00    +0.000 C 
ENDBRANCH  23  26
BRANCH  25  28
ATOM     28  O   UNL     1       5.703  13.760  43.115  0.00  0.00    +0.000 OA
ATOM     29  H   UNL     1       5.341  12.909  43.436  0.00  0.00    +0.000 HD
ENDBRANCH  25  28
ENDBRANCH  19  20
ENDBRANCH  17  18
ENDBRANCH   1  17
TORSDOF 10
ENDMDL
MODEL 14
REMARK VINA RESULT:    -5.392      2.045      6.156
REMARK INTER + INTRA:         -10.008
REMARK INTER:                  -8.502
REMARK INTRA:                  -1.506
REMARK UNBOUND:                -1.780
REMARK  Name = opt84.pdb
REMARK  12 active torsions:
REMARK  status: ('A' for Active; 'I' for Inactive)
REMARK    1  A    between atoms: C_2  and  C_3
REMARK    2  A    between atoms: C_2  and  C_4
REMARK    3  A    between atoms: C_4  and  C_6
REMARK    4  A    between atoms: C_5  and  C_7
REMARK    5  A    between atoms: C_6  and  C_9
REMARK    6  A    between atoms: C_12  and  C_15
REMARK    7  A    between atoms: C_13  and  O_16
REMARK    8  A    between atoms: O_16  and  C_20
REMARK    9  A    between atoms: C_17  and  O_21
REMARK   10  A    between atoms: C_22  and  O_24
REMARK   11  A    between atoms: O_24  and  C_26
REMARK   12  A    between atoms: C_25  and  O_27
REMARK                            x       y       z     vdW  Elec       q    Type
REMARK                         _______ _______ _______ _____ _____    ______ ____
ROOT
ATOM      1  C   UNL     1      14.561  12.483  42.441  0.00  0.00    +0.000 C 
ENDROOT
BRANCH   1   2
ATOM      2  C   UNL     1      13.818  11.813  43.579  0.00  0.00    +0.000 C 
ATOM      3  O   UNL     1      14.413  11.238  44.469  0.00  0.00    +0.000 OA
BRANCH   2   4
ATOM      4  C   UNL     1      12.339  11.888  43.546  0.00  0.00    +0.000 C 
ATOM      5  C   UNL     1      11.598  13.003  43.642  0.00  0.00    +0.000 C 
BRANCH   5   6
ATOM      6  C   UNL     1      10.127  13.135  43.611  0.00  0.00    +0.000 A 
ATOM      7  C   UNL     1       9.323  12.090  43.148  0.00  0.00    +0.000 A 
ATOM      8  C   UNL     1       9.538  14.332  44.018  0.00  0.00    +0.000 A 
ATOM      9  C   UNL     1       7.933  12.243  43.093  0.00  0.00    +0.000 A 
ATOM     10  C   UNL     1       8.156  14.491  43.958  0.00  0.00    +0.000 A 
ATOM     11  C   UNL     1       7.357  13.449  43.495  0.00  0.00    +0.000 A 
BRANCH  11  12
ATOM     12  O   UNL     1       6.008  13.596  43.422  0.00  0.00    +0.000 OA
ATOM     13  H   UNL     1       5.789  14.367  43.983  0.00  0.00    +0.000 HD
ENDBRANCH  11  12
BRANCH   9  14
ATOM     14  O   UNL     1       7.081  11.242  42.645  0.00  0.00    +0.000 OA
ATOM     15  C   UNL     1       6.621  10.157  43.486  0.00  0.00    +0.000 C 
ENDBRANCH   9  14
ENDBRANCH   5   6
ENDBRANCH   2   4
ENDBRANCH   1   2
BRANCH   1  17
ATOM     16  O   UNL     1      16.635  13.438  43.154  0.00  0.00    +0.000 OA
ATOM     17  C   UNL     1      15.455  13.615  42.912  0.00  0.00    +0.000 C 
BRANCH  17  18
ATOM     18  C   UNL     1      14.801  14.919  43.160  0.00  0.00    +0.000 C 
ATOM     19  C   UNL     1      14.410  15.417  44.342  0.00  0.00    +0.000 C 
BRANCH  19  20
ATOM     20  C   UNL     1      13.729  16.705  44.558  0.00  0.00    +0.000 A 
ATOM     21  C   UNL     1      14.474  17.854  44.827  0.00  0.00    +0.000 A 
ATOM     22  C   UNL     1      12.342  16.783  44.438  0.00  0.00    +0.000 A 
ATOM     23  C   UNL     1      13.830  19.089  44.963  0.00  0.00    +0.000 A 
ATOM     24  C   UNL     1      11.697  18.010  44.576  0.00  0.00    +0.000 A 
ATOM     25  C   UNL     1      12.442  19.157  44.832  0.00  0.00    +0.000 A 
BRANCH  23  26
ATOM     26  O   UNL     1      14.513  20.272  45.208  0.00  0.00    +0.000 OA
ATOM     27  C   UNL     1      15.843  20.538  44.706  0.00  0.00    +0.000 C 
ENDBRANCH  23  26
BRANCH  25  28
ATOM     28  O   UNL     1      11.831  20.366  44.942  0.00  0.00    +0.000 OA
ATOM     29  H   UNL     1      11.334  20.331  45.784  0.00  0.00    +0.000 HD
ENDBRANCH  25  28
ENDBRANCH  19  20
ENDBRANCH  17  18
ENDBRANCH   1  17
TORSDOF 10
ENDMDL
MODEL 15
REMARK VINA RESULT:    -5.341      2.405      6.527
REMARK INTER + INTRA:          -9.932
REMARK INTER:                  -8.353
REMARK INTRA:                  -1.579
REMARK UNBOUND:                -1.780
REMARK  Name = opt84.pdb
REMARK  12 active torsions:
REMARK  status: ('A' for Active; 'I' for Inactive)
REMARK    1  A    between atoms: C_2  and  C_3
REMARK    2  A    between atoms: C_2  and  C_4
REMARK    3  A    between atoms: C_4  and  C_6
REMARK    4  A    between atoms: C_5  and  C_7
REMARK    5  A    between atoms: C_6  and  C_9
REMARK    6  A    between atoms: C_12  and  C_15
REMARK    7  A    between atoms: C_13  and  O_16
REMARK    8  A    between atoms: O_16  and  C_20
REMARK    9  A    between atoms: C_17  and  O_21
REMARK   10  A    between atoms: C_22  and  O_24
REMARK   11  A    between atoms: O_24  and  C_26
REMARK   12  A    between atoms: C_25  and  O_27
REMARK                            x       y       z     vdW  Elec       q    Type
REMARK                         _______ _______ _______ _____ _____    ______ ____
ROOT
ATOM      1  C   UNL     1      14.429  12.426  42.483  0.00  0.00    +0.000 C 
ENDROOT
BRANCH   1   2
ATOM      2  C   UNL     1      13.481  11.885  43.533  0.00  0.00    +0.000 C 
ATOM      3  O   UNL     1      13.895  11.320  44.526  0.00  0.00    +0.000 OA
BRANCH   2   4
ATOM      4  C   UNL     1      12.033  12.072  43.285  0.00  0.00    +0.000 C 
ATOM      5  C   UNL     1      11.262  13.053  43.780  0.00  0.00    +0.000 C 
BRANCH   5   6
ATOM      6  C   UNL     1       9.820  13.288  43.562  0.00  0.00    +0.000 A 
ATOM      7  C   UNL     1       8.985  12.259  43.117  0.00  0.00    +0.000 A 
ATOM      8  C   UNL     1       9.294  14.564  43.771  0.00  0.00    +0.000 A 
ATOM      9  C   UNL     1       7.628  12.507  42.883  0.00  0.00    +0.000 A 
ATOM     10  C   UNL     1       7.946  14.815  43.532  0.00  0.00    +0.000 A 
ATOM     11  C   UNL     1       7.117  13.789  43.087  0.00  0.00    +0.000 A 
BRANCH  11  12
ATOM     12  O   UNL     1       5.800  14.026  42.841  0.00  0.00    +0.000 OA
ATOM     13  H   UNL     1       5.757  14.399  41.937  0.00  0.00    +0.000 HD
ENDBRANCH  11  12
BRANCH   9  14
ATOM     14  O   UNL     1       6.747  11.528  42.443  0.00  0.00    +0.000 OA
ATOM     15  C   UNL     1       6.310  10.423  43.271  0.00  0.00    +0.000 C 
ENDBRANCH   9  14
ENDBRANCH   5   6
ENDBRANCH   2   4
ENDBRANCH   1   2
BRANCH   1  17
ATOM     16  O   UNL     1      16.450  13.335  43.382  0.00  0.00    +0.000 OA
ATOM     17  C   UNL     1      15.310  13.544  43.010  0.00  0.00    +0.000 C 
BRANCH  17  18
ATOM     18  C   UNL     1      14.684  14.877  43.144  0.00  0.00    +0.000 C 
ATOM     19  C   UNL     1      14.139  15.409  44.248  0.00  0.00    +0.000 C 
BRANCH  19  20
ATOM     20  C   UNL     1      13.491  16.727  44.347  0.00  0.00    +0.000 A 
ATOM     21  C   UNL     1      12.222  16.926  43.803  0.00  0.00    +0.000 A 
ATOM     22  C   UNL     1      14.127  17.761  45.034  0.00  0.00    +0.000 A 
ATOM     23  C   UNL     1      11.580  18.160  43.959  0.00  0.00    +0.000 A 
ATOM     24  C   UNL     1      13.493  18.991  45.188  0.00  0.00    +0.000 A 
ATOM     25  C   UNL     1      12.222  19.184  44.656  0.00  0.00    +0.000 A 
BRANCH  23  26
ATOM     26  O   UNL     1      10.309  18.415  43.462  0.00  0.00    +0.000 OA
ATOM     27  C   UNL     1      10.036  18.634  42.058  0.00  0.00    +0.000 C 
ENDBRANCH  23  26
BRANCH  25  28
ATOM     28  O   UNL     1      11.577  20.369  44.821  0.00  0.00    +0.000 OA
ATOM     29  H   UNL     1      11.349  20.413  45.772  0.00  0.00    +0.000 HD
ENDBRANCH  25  28
ENDBRANCH  19  20
ENDBRANCH  17  18
ENDBRANCH   1  17
TORSDOF 10
ENDMDL
MODEL 16
REMARK VINA RESULT:    -5.251      1.667      2.753
REMARK INTER + INTRA:          -9.793
REMARK INTER:                  -7.852
REMARK INTRA:                  -1.941
REMARK UNBOUND:                -1.780
REMARK  Name = opt84.pdb
REMARK  12 active torsions:
REMARK  status: ('A' for Active; 'I' for Inactive)
REMARK    1  A    between atoms: C_2  and  C_3
REMARK    2  A    between atoms: C_2  and  C_4
REMARK    3  A    between atoms: C_4  and  C_6
REMARK    4  A    between atoms: C_5  and  C_7
REMARK    5  A    between atoms: C_6  and  C_9
REMARK    6  A    between atoms: C_12  and  C_15
REMARK    7  A    between atoms: C_13  and  O_16
REMARK    8  A    between atoms: O_16  and  C_20
REMARK    9  A    between atoms: C_17  and  O_21
REMARK   10  A    between atoms: C_22  and  O_24
REMARK   11  A    between atoms: O_24  and  C_26
REMARK   12  A    between atoms: C_25  and  O_27
REMARK                            x       y       z     vdW  Elec       q    Type
REMARK                         _______ _______ _______ _____ _____    ______ ____
ROOT
ATOM      1  C   UNL     1      12.458  12.531  43.232  0.00  0.00    +0.000 C 
ENDROOT
BRANCH   1   2
ATOM      2  C   UNL     1      13.508  11.902  44.125  0.00  0.00    +0.000 C 
ATOM      3  O   UNL     1      13.451  10.728  44.435  0.00  0.00    +0.000 OA
BRANCH   2   4
ATOM      4  C   UNL     1      14.595  12.786  44.603  0.00  0.00    +0.000 C 
ATOM      5  C   UNL     1      15.470  13.456  43.835  0.00  0.00    +0.000 C 
BRANCH   5   6
ATOM      6  C   UNL     1      16.566  14.351  44.258  0.00  0.00    +0.000 A 
ATOM      7  C   UNL     1      16.387  15.260  45.305  0.00  0.00    +0.000 A 
ATOM      8  C   UNL     1      17.784  14.311  43.578  0.00  0.00    +0.000 A 
ATOM      9  C   UNL     1      17.424  16.125  45.671  0.00  0.00    +0.000 A 
ATOM     10  C   UNL     1      18.816  15.176  43.935  0.00  0.00    +0.000 A 
ATOM     11  C   UNL     1      18.634  16.080  44.977  0.00  0.00    +0.000 A 
BRANCH  11  12
ATOM     12  O   UNL     1      19.631  16.936  45.328  0.00  0.00    +0.000 OA
ATOM     13  H   UNL     1      19.219  17.821  45.389  0.00  0.00    +0.000 HD
ENDBRANCH  11  12
BRANCH   9  14
ATOM     14  O   UNL     1      17.309  17.047  46.703  0.00  0.00    +0.000 OA
ATOM     15  C   UNL     1      16.517  18.254  46.604  0.00  0.00    +0.000 C 
ENDBRANCH   9  14
ENDBRANCH   5   6
ENDBRANCH   2   4
ENDBRANCH   1   2
BRANCH   1  17
ATOM     16  O   UNL     1      10.631  13.376  44.523  0.00  0.00    +0.000 OA
ATOM     17  C   UNL     1      11.668  13.619  43.935  0.00  0.00    +0.000 C 
BRANCH  17  18
ATOM     18  C   UNL     1      12.167  15.004  43.785  0.00  0.00    +0.000 C 
ATOM     19  C   UNL     1      12.693  15.783  44.742  0.00  0.00    +0.000 C 
BRANCH  19  20
ATOM     20  C   UNL     1      13.152  17.172  44.574  0.00  0.00    +0.000 A 
ATOM     21  C   UNL     1      14.211  17.461  43.713  0.00  0.00    +0.000 A 
ATOM     22  C   UNL     1      12.488  18.205  45.236  0.00  0.00    +0.000 A 
ATOM     23  C   UNL     1      14.600  18.789  43.502  0.00  0.00    +0.000 A 
ATOM     24  C   UNL     1      12.874  19.527  45.032  0.00  0.00    +0.000 A 
ATOM     25  C   UNL     1      13.923  19.814  44.163  0.00  0.00    +0.000 A 
BRANCH  23  26
ATOM     26  O   UNL     1      15.630  19.145  42.643  0.00  0.00    +0.000 OA
ATOM     27  C   UNL     1      16.974  18.623  42.757  0.00  0.00    +0.000 C 
ENDBRANCH  23  26
BRANCH  25  28
ATOM     28  O   UNL     1      14.294  21.101  43.932  0.00  0.00    +0.000 OA
ATOM     29  H   UNL     1      15.086  21.045  43.360  0.00  0.00    +0.000 HD
ENDBRANCH  25  28
ENDBRANCH  19  20
ENDBRANCH  17  18
ENDBRANCH   1  17
TORSDOF 10
ENDMDL
MODEL 17
REMARK VINA RESULT:    -5.224      2.616      6.361
REMARK INTER + INTRA:          -9.753
REMARK INTER:                  -8.059
REMARK INTRA:                  -1.694
REMARK UNBOUND:                -1.780
REMARK  Name = opt84.pdb
REMARK  12 active torsions:
REMARK  status: ('A' for Active; 'I' for Inactive)
REMARK    1  A    between atoms: C_2  and  C_3
REMARK    2  A    between atoms: C_2  and  C_4
REMARK    3  A    between atoms: C_4  and  C_6
REMARK    4  A    between atoms: C_5  and  C_7
REMARK    5  A    between atoms: C_6  and  C_9
REMARK    6  A    between atoms: C_12  and  C_15
REMARK    7  A    between atoms: C_13  and  O_16
REMARK    8  A    between atoms: O_16  and  C_20
REMARK    9  A    between atoms: C_17  and  O_21
REMARK   10  A    between atoms: C_22  and  O_24
REMARK   11  A    between atoms: O_24  and  C_26
REMARK   12  A    between atoms: C_25  and  O_27
REMARK                            x       y       z     vdW  Elec       q    Type
REMARK                         _______ _______ _______ _____ _____    ______ ____
ROOT
ATOM      1  C   UNL     1      11.232  19.008  42.442  0.00  0.00    +0.000 C 
ENDROOT
BRANCH   1   2
ATOM      2  C   UNL     1      12.058  18.716  43.678  0.00  0.00    +0.000 C 
ATOM      3  O   UNL     1      12.115  19.504  44.601  0.00  0.00    +0.000 OA
BRANCH   2   4
ATOM      4  C   UNL     1      12.796  17.431  43.699  0.00  0.00    +0.000 C 
ATOM      5  C   UNL     1      12.520  16.370  44.473  0.00  0.00    +0.000 C 
BRANCH   5   6
ATOM      6  C   UNL     1      13.216  15.068  44.531  0.00  0.00    +0.000 A 
ATOM      7  C   UNL     1      14.612  15.002  44.529  0.00  0.00    +0.000 A 
ATOM      8  C   UNL     1      12.468  13.891  44.552  0.00  0.00    +0.000 A 
ATOM      9  C   UNL     1      15.257  13.760  44.550  0.00  0.00    +0.000 A 
ATOM     10  C   UNL     1      13.106  12.654  44.566  0.00  0.00    +0.000 A 
ATOM     11  C   UNL     1      14.496  12.590  44.563  0.00  0.00    +0.000 A 
BRANCH  11  12
ATOM     12  O   UNL     1      15.130  11.387  44.566  0.00  0.00    +0.000 OA
ATOM     13  H   UNL     1      15.641  11.348  43.732  0.00  0.00    +0.000 HD
ENDBRANCH  11  12
BRANCH   9  14
ATOM     14  O   UNL     1      16.639  13.627  44.553  0.00  0.00    +0.000 OA
ATOM     15  C   UNL     1      17.533  14.645  45.060  0.00  0.00    +0.000 C 
ENDBRANCH   9  14
ENDBRANCH   5   6
ENDBRANCH   2   4
ENDBRANCH   1   2
BRANCH   1  17
ATOM     16  O   UNL     1       8.951  19.695  42.655  0.00  0.00    +0.000 OA
ATOM     17  C   UNL     1       9.749  18.775  42.662  0.00  0.00    +0.000 C 
BRANCH  17  18
ATOM     18  C   UNL     1       9.334  17.392  42.985  0.00  0.00    +0.000 C 
ATOM     19  C   UNL     1       9.542  16.292  42.248  0.00  0.00    +0.000 C 
BRANCH  19  20
ATOM     20  C   UNL     1       9.089  14.930  42.576  0.00  0.00    +0.000 A 
ATOM     21  C   UNL     1       7.866  14.734  43.218  0.00  0.00    +0.000 A 
ATOM     22  C   UNL     1       9.861  13.833  42.194  0.00  0.00    +0.000 A 
ATOM     23  C   UNL     1       7.406  13.436  43.467  0.00  0.00    +0.000 A 
ATOM     24  C   UNL     1       9.409  12.540  42.443  0.00  0.00    +0.000 A 
ATOM     25  C   UNL     1       8.182  12.346  43.072  0.00  0.00    +0.000 A 
BRANCH  23  26
ATOM     26  O   UNL     1       6.189  13.173  44.081  0.00  0.00    +0.000 OA
ATOM     27  C   UNL     1       5.897  13.536  45.450  0.00  0.00    +0.000 C 
ENDBRANCH  23  26
BRANCH  25  28
ATOM     28  O   UNL     1       7.713  11.091  43.297  0.00  0.00    +0.000 OA
ATOM     29  H   UNL     1       7.049  11.184  44.010  0.00  0.00    +0.000 HD
ENDBRANCH  25  28
ENDBRANCH  19  20
ENDBRANCH  17  18
ENDBRANCH   1  17
TORSDOF 10
ENDMDL
MODEL 18
REMARK VINA RESULT:    -5.109      2.448      7.228
REMARK INTER + INTRA:          -9.578
REMARK INTER:                  -8.020
REMARK INTRA:                  -1.558
REMARK UNBOUND:                -1.780
REMARK  Name = opt84.pdb
REMARK  12 active torsions:
REMARK  status: ('A' for Active; 'I' for Inactive)
REMARK    1  A    between atoms: C_2  and  C_3
REMARK    2  A    between atoms: C_2  and  C_4
REMARK    3  A    between atoms: C_4  and  C_6
REMARK    4  A    between atoms: C_5  and  C_7
REMARK    5  A    between atoms: C_6  and  C_9
REMARK    6  A    between atoms: C_12  and  C_15
REMARK    7  A    between atoms: C_13  and  O_16
REMARK    8  A    between atoms: O_16  and  C_20
REMARK    9  A    between atoms: C_17  and  O_21
REMARK   10  A    between atoms: C_22  and  O_24
REMARK   11  A    between atoms: O_24  and  C_26
REMARK   12  A    between atoms: C_25  and  O_27
REMARK                            x       y       z     vdW  Elec       q    Type
REMARK                         _______ _______ _______ _____ _____    ______ ____
ROOT
ATOM      1  C   UNL     1      11.638  19.210  43.308  0.00  0.00    +0.000 C 
ENDROOT
BRANCH   1   2
ATOM      2  C   UNL     1      10.137  19.139  43.501  0.00  0.00    +0.000 C 
ATOM      3  O   UNL     1       9.474  20.143  43.675  0.00  0.00    +0.000 OA
BRANCH   2   4
ATOM      4  C   UNL     1       9.523  17.791  43.474  0.00  0.00    +0.000 C 
ATOM      5  C   UNL     1       9.835  16.792  42.632  0.00  0.00    +0.000 C 
BRANCH   5   6
ATOM      6  C   UNL     1       9.260  15.433  42.565  0.00  0.00    +0.000 A 
ATOM      7  C   UNL     1       8.096  15.112  43.268  0.00  0.00    +0.000 A 
ATOM      8  C   UNL     1       9.910  14.451  41.817  0.00  0.00    +0.000 A 
ATOM      9  C   UNL     1       7.583  13.811  43.221  0.00  0.00    +0.000 A 
ATOM     10  C   UNL     1       9.407  13.154  41.774  0.00  0.00    +0.000 A 
ATOM     11  C   UNL     1       8.247  12.836  42.476  0.00  0.00    +0.000 A 
BRANCH  11  12
ATOM     12  O   UNL     1       7.752  11.569  42.449  0.00  0.00    +0.000 OA
ATOM     13  H   UNL     1       7.630  11.307  43.384  0.00  0.00    +0.000 HD
ENDBRANCH  11  12
BRANCH   9  14
ATOM     14  O   UNL     1       6.430  13.429  43.895  0.00  0.00    +0.000 OA
ATOM     15  C   UNL     1       6.031  13.993  45.167  0.00  0.00    +0.000 C 
ENDBRANCH   9  14
ENDBRANCH   5   6
ENDBRANCH   2   4
ENDBRANCH   1   2
BRANCH   1  17
ATOM     16  O   UNL     1      12.541  19.471  45.508  0.00  0.00    +0.000 OA
ATOM     17  C   UNL     1      12.407  18.753  44.534  0.00  0.00    +0.000 C 
BRANCH  17  18
ATOM     18  C   UNL     1      13.072  17.434  44.447  0.00  0.00    +0.000 C 
ATOM     19  C   UNL     1      12.485  16.228  44.474  0.00  0.00    +0.000 C 
BRANCH  19  20
ATOM     20  C   UNL     1      13.173  14.927  44.420  0.00  0.00    +0.000 A 
ATOM     21  C   UNL     1      14.567  14.874  44.373  0.00  0.00    +0.000 A 
ATOM     22  C   UNL     1      12.430  13.749  44.471  0.00  0.00    +0.000 A 
ATOM     23  C   UNL     1      15.220  13.636  44.392  0.00  0.00    +0.000 A 
ATOM     24  C   UNL     1      13.076  12.516  44.486  0.00  0.00    +0.000 A 
ATOM     25  C   UNL     1      14.466  12.463  44.452  0.00  0.00    +0.000 A 
BRANCH  23  26
ATOM     26  O   UNL     1      16.603  13.514  44.370  0.00  0.00    +0.000 OA
ATOM     27  C   UNL     1      17.499  14.650  44.368  0.00  0.00    +0.000 C 
ENDBRANCH  23  26
BRANCH  25  28
ATOM     28  O   UNL     1      15.113  11.269  44.494  0.00  0.00    +0.000 OA
ATOM     29  H   UNL     1      14.763  10.810  45.284  0.00  0.00    +0.000 HD
ENDBRANCH  25  28
ENDBRANCH  19  20
ENDBRANCH  17  18
ENDBRANCH   1  17
TORSDOF 10
ENDMDL
MODEL 19
REMARK VINA RESULT:    -4.313      2.649      6.655
REMARK INTER + INTRA:          -8.362
REMARK INTER:                  -6.659
REMARK INTRA:                  -1.703
REMARK UNBOUND:                -1.780
REMARK  Name = opt84.pdb
REMARK  12 active torsions:
REMARK  status: ('A' for Active; 'I' for Inactive)
REMARK    1  A    between atoms: C_2  and  C_3
REMARK    2  A    between atoms: C_2  and  C_4
REMARK    3  A    between atoms: C_4  and  C_6
REMARK    4  A    between atoms: C_5  and  C_7
REMARK    5  A    between atoms: C_6  and  C_9
REMARK    6  A    between atoms: C_12  and  C_15
REMARK    7  A    between atoms: C_13  and  O_16
REMARK    8  A    between atoms: O_16  and  C_20
REMARK    9  A    between atoms: C_17  and  O_21
REMARK   10  A    between atoms: C_22  and  O_24
REMARK   11  A    between atoms: O_24  and  C_26
REMARK   12  A    between atoms: C_25  and  O_27
REMARK                            x       y       z     vdW  Elec       q    Type
REMARK                         _______ _______ _______ _____ _____    ______ ____
ROOT
ATOM      1  C   UNL     1      11.474  18.806  43.112  0.00  0.00    +0.000 C 
ENDROOT
BRANCH   1   2
ATOM      2  C   UNL     1      12.212  18.572  44.415  0.00  0.00    +0.000 C 
ATOM      3  O   UNL     1      12.437  19.484  45.186  0.00  0.00    +0.000 OA
BRANCH   2   4
ATOM      4  C   UNL     1      12.648  17.185  44.695  0.00  0.00    +0.000 C 
ATOM      5  C   UNL     1      12.944  16.245  43.783  0.00  0.00    +0.000 C 
BRANCH   5   6
ATOM      6  C   UNL     1      13.386  14.854  44.006  0.00  0.00    +0.000 A 
ATOM      7  C   UNL     1      12.559  13.776  43.677  0.00  0.00    +0.000 A 
ATOM      8  C   UNL     1      14.633  14.617  44.586  0.00  0.00    +0.000 A 
ATOM      9  C   UNL     1      12.980  12.465  43.927  0.00  0.00    +0.000 A 
ATOM     10  C   UNL     1      15.052  13.314  44.843  0.00  0.00    +0.000 A 
ATOM     11  C   UNL     1      14.226  12.242  44.515  0.00  0.00    +0.000 A 
BRANCH  11  12
ATOM     12  O   UNL     1      14.620  10.966  44.770  0.00  0.00    +0.000 OA
ATOM     13  H   UNL     1      14.009  10.389  44.269  0.00  0.00    +0.000 HD
ENDBRANCH  11  12
BRANCH   9  14
ATOM     14  O   UNL     1      12.207  11.353  43.621  0.00  0.00    +0.000 OA
ATOM     15  C   UNL     1      11.290  11.308  42.502  0.00  0.00    +0.000 C 
ENDBRANCH   9  14
ENDBRANCH   5   6
ENDBRANCH   2   4
ENDBRANCH   1   2
BRANCH   1  17
ATOM     16  O   UNL     1       9.375  19.915  43.403  0.00  0.00    +0.000 OA
ATOM     17  C   UNL     1       9.969  18.858  43.294  0.00  0.00    +0.000 C 
BRANCH  17  18
ATOM     18  C   UNL     1       9.271  17.560  43.432  0.00  0.00    +0.000 C 
ATOM     19  C   UNL     1       9.569  16.411  42.807  0.00  0.00    +0.000 C 
BRANCH  19  20
ATOM     20  C   UNL     1       8.837  15.140  42.937  0.00  0.00    +0.000 A 
ATOM     21  C   UNL     1       8.132  14.853  44.106  0.00  0.00    +0.000 A 
ATOM     22  C   UNL     1       8.805  14.247  41.865  0.00  0.00    +0.000 A 
ATOM     23  C   UNL     1       7.381  13.676  44.199  0.00  0.00    +0.000 A 
ATOM     24  C   UNL     1       8.063  13.073  41.956  0.00  0.00    +0.000 A 
ATOM     25  C   UNL     1       7.350  12.795  43.118  0.00  0.00    +0.000 A 
BRANCH  23  26
ATOM     26  O   UNL     1       6.640  13.343  45.325  0.00  0.00    +0.000 OA
ATOM     27  C   UNL     1       5.450  14.057  45.731  0.00  0.00    +0.000 C 
ENDBRANCH  23  26
BRANCH  25  28
ATOM     28  O   UNL     1       6.598  11.667  43.212  0.00  0.00    +0.000 OA
ATOM     29  H   UNL     1       5.675  11.976  43.320  0.00  0.00    +0.000 HD
ENDBRANCH  25  28
ENDBRANCH  19  20
ENDBRANCH  17  18
ENDBRANCH   1  17
TORSDOF 10
ENDMDL
