MODEL 1
REMARK VINA RESULT:    -6.334      0.000      0.000
REMARK INTER + INTRA:          -7.538
REMARK INTER:                  -7.260
REMARK INTRA:                  -0.278
REMARK UNBOUND:                -0.278
REMARK  Name = opt70.pdb
REMARK  4 active torsions:
REMARK  status: ('A' for Active; 'I' for Inactive)
REMARK    1  A    between atoms: C_4  and  C_7
REMARK    2  A    between atoms: C_6  and  O_11
REMARK    3  A    between atoms: C_15  and  O_18
REMARK    4  A    between atoms: C_19  and  O_20
REMARK                            x       y       z     vdW  Elec       q    Type
REMARK                         _______ _______ _______ _____ _____    ______ ____
ROOT
ATOM      1  O   UNL     1      12.442  11.952  43.870  0.00  0.00    +0.000 OA
ATOM      2  C   UNL     1      12.596  13.157  43.965  0.00  0.00    +0.000 A 
ATOM      3  C   UNL     1      13.881  13.775  44.365  0.00  0.00    +0.000 A 
ATOM      4  C   UNL     1      11.498  14.113  43.717  0.00  0.00    +0.000 A 
ATOM      5  C   UNL     1      13.988  15.158  44.450  0.00  0.00    +0.000 A 
ATOM      6  C   UNL     1      15.073  13.002  44.694  0.00  0.00    +0.000 A 
ATOM      7  C   UNL     1      11.726  15.473  43.832  0.00  0.00    +0.000 A 
ATOM      8  O   UNL     1      12.959  16.040  44.145  0.00  0.00    +0.000 OA
ATOM      9  C   UNL     1      15.253  15.751  44.858  0.00  0.00    +0.000 A 
ATOM     10  C   UNL     1      16.262  13.597  45.085  0.00  0.00    +0.000 A 
ATOM     11  C   UNL     1      16.367  14.972  45.173  0.00  0.00    +0.000 A 
ENDROOT
BRANCH   4  12
ATOM     12  C   UNL     1      10.458  13.782  43.448  0.00  0.00    +0.000 A 
ATOM     13  C   UNL     1      10.061  13.435  42.137  0.00  0.00    +0.000 A 
ATOM     14  C   UNL     1       9.499  13.654  44.476  0.00  0.00    +0.000 A 
ATOM     15  C   UNL     1       8.763  12.979  41.871  0.00  0.00    +0.000 A 
ATOM     16  C   UNL     1       8.206  13.201  44.195  0.00  0.00    +0.000 A 
ATOM     17  C   UNL     1       7.826  12.856  42.898  0.00  0.00    +0.000 A 
BRANCH  17  18
ATOM     18  O   UNL     1       6.542  12.406  42.674  0.00  0.00    +0.000 OA
ATOM     19  H   UNL     1       6.103  11.953  43.431  0.00  0.00    +0.000 HD
ENDBRANCH  17  18
ENDBRANCH   4  12
BRANCH   6  20
ATOM     20  O   UNL     1      15.082  11.646  44.630  0.00  0.00    +0.000 OA
ATOM     21  H   UNL     1      14.556  11.415  43.848  0.00  0.00    +0.000 HD
ENDBRANCH   6  20
BRANCH  11  22
ATOM     22  O   UNL     1      17.574  15.492  45.562  0.00  0.00    +0.000 OA
ATOM     23  H   UNL     1      18.290  14.841  45.600  0.00  0.00    +0.000 HD
ENDBRANCH  11  22
TORSDOF 4
ENDMDL
MODEL 2
REMARK VINA RESULT:    -6.213      1.447      6.803
REMARK INTER + INTRA:          -7.398
REMARK INTER:                  -7.110
REMARK INTRA:                  -0.288
REMARK UNBOUND:                -0.278
REMARK  Name = opt70.pdb
REMARK  4 active torsions:
REMARK  status: ('A' for Active; 'I' for Inactive)
REMARK    1  A    between atoms: C_4  and  C_7
REMARK    2  A    between atoms: C_6  and  O_11
REMARK    3  A    between atoms: C_15  and  O_18
REMARK    4  A    between atoms: C_19  and  O_20
REMARK                            x       y       z     vdW  Elec       q    Type
REMARK                         _______ _______ _______ _____ _____    ______ ____
ROOT
ATOM      1  O   UNL     1      12.971  15.929  44.048  0.00  0.00    +0.000 OA
ATOM      2  C   UNL     1      12.574  14.781  43.953  0.00  0.00    +0.000 A 
ATOM      3  C   UNL     1      11.142  14.433  43.806  0.00  0.00    +0.000 A 
ATOM      4  C   UNL     1      13.492  13.625  44.007  0.00  0.00    +0.000 A 
ATOM      5  C   UNL     1      10.761  13.101  43.699  0.00  0.00    +0.000 A 
ATOM      6  C   UNL     1      10.077  15.428  43.775  0.00  0.00    +0.000 A 
ATOM      7  C   UNL     1      12.993  12.340  43.888  0.00  0.00    +0.000 A 
ATOM      8  O   UNL     1      11.649  12.033  43.684  0.00  0.00    +0.000 OA
ATOM      9  C   UNL     1       9.349  12.773  43.569  0.00  0.00    +0.000 A 
ATOM     10  C   UNL     1       8.739  15.083  43.656  0.00  0.00    +0.000 A 
ATOM     11  C   UNL     1       8.360  13.758  43.553  0.00  0.00    +0.000 A 
ENDROOT
BRANCH   4  12
ATOM     12  C   UNL     1      14.599  13.739  44.158  0.00  0.00    +0.000 A 
ATOM     13  C   UNL     1      15.517  13.951  43.105  0.00  0.00    +0.000 A 
ATOM     14  C   UNL     1      15.110  13.721  45.475  0.00  0.00    +0.000 A 
ATOM     15  C   UNL     1      16.882  14.139  43.361  0.00  0.00    +0.000 A 
ATOM     16  C   UNL     1      16.475  13.907  45.715  0.00  0.00    +0.000 A 
ATOM     17  C   UNL     1      17.372  14.121  44.668  0.00  0.00    +0.000 A 
BRANCH  17  18
ATOM     18  O   UNL     1      18.707  14.307  44.957  0.00  0.00    +0.000 OA
ATOM     19  H   UNL     1      19.328  14.245  44.196  0.00  0.00    +0.000 HD
ENDBRANCH  17  18
ENDBRANCH   4  12
BRANCH   6  20
ATOM     20  O   UNL     1      10.339  16.756  43.858  0.00  0.00    +0.000 OA
ATOM     21  H   UNL     1      10.853  16.873  44.673  0.00  0.00    +0.000 HD
ENDBRANCH   6  20
BRANCH  11  22
ATOM     22  O   UNL     1       7.021  13.490  43.433  0.00  0.00    +0.000 OA
ATOM     23  H   UNL     1       6.814  12.549  43.322  0.00  0.00    +0.000 HD
ENDBRANCH  11  22
TORSDOF 4
ENDMDL
MODEL 3
REMARK VINA RESULT:    -6.200      1.628      2.276
REMARK INTER + INTRA:          -7.384
REMARK INTER:                  -7.079
REMARK INTRA:                  -0.305
REMARK UNBOUND:                -0.278
REMARK  Name = opt70.pdb
REMARK  4 active torsions:
REMARK  status: ('A' for Active; 'I' for Inactive)
REMARK    1  A    between atoms: C_4  and  C_7
REMARK    2  A    between atoms: C_6  and  O_11
REMARK    3  A    between atoms: C_15  and  O_18
REMARK    4  A    between atoms: C_19  and  O_20
REMARK                            x       y       z     vdW  Elec       q    Type
REMARK                         _______ _______ _______ _____ _____    ______ ____
ROOT
ATOM      1  O   UNL     1      13.962  13.023  45.449  0.00  0.00    +0.000 OA
ATOM      2  C   UNL     1      14.154  13.859  44.583  0.00  0.00    +0.000 A 
ATOM      3  C   UNL     1      15.429  14.602  44.449  0.00  0.00    +0.000 A 
ATOM      4  C   UNL     1      13.114  14.230  43.602  0.00  0.00    +0.000 A 
ATOM      5  C   UNL     1      15.580  15.540  43.435  0.00  0.00    +0.000 A 
ATOM      6  C   UNL     1      16.563  14.412  45.346  0.00  0.00    +0.000 A 
ATOM      7  C   UNL     1      13.384  15.180  42.634  0.00  0.00    +0.000 A 
ATOM      8  O   UNL     1      14.611  15.822  42.481  0.00  0.00    +0.000 OA
ATOM      9  C   UNL     1      16.833  16.271  43.325  0.00  0.00    +0.000 A 
ATOM     10  C   UNL     1      17.742  15.130  45.218  0.00  0.00    +0.000 A 
ATOM     11  C   UNL     1      17.891  16.065  44.211  0.00  0.00    +0.000 A 
ENDROOT
BRANCH   4  12
ATOM     12  C   UNL     1      12.085  13.777  43.612  0.00  0.00    +0.000 A 
ATOM     13  C   UNL     1      11.032  14.243  44.431  0.00  0.00    +0.000 A 
ATOM     14  C   UNL     1      11.802  12.715  42.725  0.00  0.00    +0.000 A 
ATOM     15  C   UNL     1       9.754  13.670  44.362  0.00  0.00    +0.000 A 
ATOM     16  C   UNL     1      10.523  12.152  42.669  0.00  0.00    +0.000 A 
ATOM     17  C   UNL     1       9.489  12.623  43.479  0.00  0.00    +0.000 A 
BRANCH  17  18
ATOM     18  O   UNL     1       8.244  12.040  43.380  0.00  0.00    +0.000 OA
ATOM     19  H   UNL     1       7.478  12.607  43.631  0.00  0.00    +0.000 HD
ENDBRANCH  17  18
ENDBRANCH   4  12
BRANCH   6  20
ATOM     20  O   UNL     1      16.525  13.512  46.361  0.00  0.00    +0.000 OA
ATOM     21  H   UNL     1      17.104  13.870  47.053  0.00  0.00    +0.000 HD
ENDBRANCH   6  20
BRANCH  11  22
ATOM     22  O   UNL     1      19.085  16.735  44.141  0.00  0.00    +0.000 OA
ATOM     23  H   UNL     1      19.712  16.498  44.841  0.00  0.00    +0.000 HD
ENDBRANCH  11  22
TORSDOF 4
ENDMDL
MODEL 4
REMARK VINA RESULT:    -6.171      0.904      0.981
REMARK INTER + INTRA:          -7.350
REMARK INTER:                  -7.063
REMARK INTRA:                  -0.287
REMARK UNBOUND:                -0.278
REMARK  Name = opt70.pdb
REMARK  4 active torsions:
REMARK  status: ('A' for Active; 'I' for Inactive)
REMARK    1  A    between atoms: C_4  and  C_7
REMARK    2  A    between atoms: C_6  and  O_11
REMARK    3  A    between atoms: C_15  and  O_18
REMARK    4  A    between atoms: C_19  and  O_20
REMARK                            x       y       z     vdW  Elec       q    Type
REMARK                         _______ _______ _______ _____ _____    ______ ____
ROOT
ATOM      1  O   UNL     1      11.478  11.697  43.536  0.00  0.00    +0.000 OA
ATOM      2  C   UNL     1      11.798  12.840  43.818  0.00  0.00    +0.000 A 
ATOM      3  C   UNL     1      13.162  13.209  44.259  0.00  0.00    +0.000 A 
ATOM      4  C   UNL     1      10.835  13.959  43.773  0.00  0.00    +0.000 A 
ATOM      5  C   UNL     1      13.458  14.532  44.561  0.00  0.00    +0.000 A 
ATOM      6  C   UNL     1      14.243  12.242  44.409  0.00  0.00    +0.000 A 
ATOM      7  C   UNL     1      11.248  15.239  44.097  0.00  0.00    +0.000 A 
ATOM      8  O   UNL     1      12.553  15.580  44.446  0.00  0.00    +0.000 OA
ATOM      9  C   UNL     1      14.800  14.878  45.006  0.00  0.00    +0.000 A 
ATOM     10  C   UNL     1      15.510  12.602  44.841  0.00  0.00    +0.000 A 
ATOM     11  C   UNL     1      15.803  13.918  45.145  0.00  0.00    +0.000 A 
ENDROOT
BRANCH   4  12
ATOM     12  C   UNL     1       9.755  13.817  43.497  0.00  0.00    +0.000 A 
ATOM     13  C   UNL     1       9.279  13.817  42.167  0.00  0.00    +0.000 A 
ATOM     14  C   UNL     1       8.818  13.574  44.526  0.00  0.00    +0.000 A 
ATOM     15  C   UNL     1       7.927  13.582  41.882  0.00  0.00    +0.000 A 
ATOM     16  C   UNL     1       7.472  13.344  44.227  0.00  0.00    +0.000 A 
ATOM     17  C   UNL     1       7.013  13.341  42.909  0.00  0.00    +0.000 A 
BRANCH  17  18
ATOM     18  O   UNL     1       5.678  13.102  42.666  0.00  0.00    +0.000 OA
ATOM     19  H   UNL     1       5.271  12.361  43.172  0.00  0.00    +0.000 HD
ENDBRANCH  17  18
ENDBRANCH   4  12
BRANCH   6  20
ATOM     20  O   UNL     1      14.066  10.926  44.127  0.00  0.00    +0.000 OA
ATOM     21  H   UNL     1      13.441  10.896  43.386  0.00  0.00    +0.000 HD
ENDBRANCH   6  20
BRANCH  11  22
ATOM     22  O   UNL     1      17.077  14.203  45.562  0.00  0.00    +0.000 OA
ATOM     23  H   UNL     1      17.262  15.151  45.649  0.00  0.00    +0.000 HD
ENDBRANCH  11  22
TORSDOF 4
ENDMDL
MODEL 5
REMARK VINA RESULT:    -6.107      1.402      6.933
REMARK INTER + INTRA:          -7.278
REMARK INTER:                  -6.980
REMARK INTRA:                  -0.298
REMARK UNBOUND:                -0.278
REMARK  Name = opt70.pdb
REMARK  4 active torsions:
REMARK  status: ('A' for Active; 'I' for Inactive)
REMARK    1  A    between atoms: C_4  and  C_7
REMARK    2  A    between atoms: C_6  and  O_11
REMARK    3  A    between atoms: C_15  and  O_18
REMARK    4  A    between atoms: C_19  and  O_20
REMARK                            x       y       z     vdW  Elec       q    Type
REMARK                         _______ _______ _______ _____ _____    ______ ____
ROOT
ATOM      1  O   UNL     1      13.223  16.171  44.108  0.00  0.00    +0.000 OA
ATOM      2  C   UNL     1      12.852  15.013  44.029  0.00  0.00    +0.000 A 
ATOM      3  C   UNL     1      11.434  14.633  43.833  0.00  0.00    +0.000 A 
ATOM      4  C   UNL     1      13.788  13.877  44.153  0.00  0.00    +0.000 A 
ATOM      5  C   UNL     1      11.082  13.292  43.749  0.00  0.00    +0.000 A 
ATOM      6  C   UNL     1      10.352  15.606  43.731  0.00  0.00    +0.000 A 
ATOM      7  C   UNL     1      13.318  12.580  44.050  0.00  0.00    +0.000 A 
ATOM      8  O   UNL     1      11.990  12.242  43.799  0.00  0.00    +0.000 OA
ATOM      9  C   UNL     1       9.683  12.933  43.570  0.00  0.00    +0.000 A 
ATOM     10  C   UNL     1       9.027  15.232  43.567  0.00  0.00    +0.000 A 
ATOM     11  C   UNL     1       8.677  13.897  43.486  0.00  0.00    +0.000 A 
ENDROOT
BRANCH   4  12
ATOM     12  C   UNL     1      14.886  14.017  44.346  0.00  0.00    +0.000 A 
ATOM     13  C   UNL     1      15.468  13.972  45.633  0.00  0.00    +0.000 A 
ATOM     14  C   UNL     1      15.751  14.200  43.244  0.00  0.00    +0.000 A 
ATOM     15  C   UNL     1      16.853  14.102  45.805  0.00  0.00    +0.000 A 
ATOM     16  C   UNL     1      17.130  14.331  43.432  0.00  0.00    +0.000 A 
ATOM     17  C   UNL     1      17.695  14.280  44.707  0.00  0.00    +0.000 A 
BRANCH  17  18
ATOM     18  O   UNL     1      19.061  14.406  44.839  0.00  0.00    +0.000 OA
ATOM     19  H   UNL     1      19.604  14.026  44.110  0.00  0.00    +0.000 HD
ENDBRANCH  17  18
ENDBRANCH   4  12
BRANCH   6  20
ATOM     20  O   UNL     1      10.587  16.941  43.787  0.00  0.00    +0.000 OA
ATOM     21  H   UNL     1       9.758  17.342  44.095  0.00  0.00    +0.000 HD
ENDBRANCH   6  20
BRANCH  11  22
ATOM     22  O   UNL     1       7.350  13.600  43.319  0.00  0.00    +0.000 OA
ATOM     23  H   UNL     1       7.187  12.779  42.832  0.00  0.00    +0.000 HD
ENDBRANCH  11  22
TORSDOF 4
ENDMDL
MODEL 6
REMARK VINA RESULT:    -6.104      0.913      1.454
REMARK INTER + INTRA:          -7.273
REMARK INTER:                  -6.965
REMARK INTRA:                  -0.308
REMARK UNBOUND:                -0.278
REMARK  Name = opt70.pdb
REMARK  4 active torsions:
REMARK  status: ('A' for Active; 'I' for Inactive)
REMARK    1  A    between atoms: C_4  and  C_7
REMARK    2  A    between atoms: C_6  and  O_11
REMARK    3  A    between atoms: C_15  and  O_18
REMARK    4  A    between atoms: C_19  and  O_20
REMARK                            x       y       z     vdW  Elec       q    Type
REMARK                         _______ _______ _______ _____ _____    ______ ____
ROOT
ATOM      1  O   UNL     1      11.443  11.749  43.568  0.00  0.00    +0.000 OA
ATOM      2  C   UNL     1      11.714  12.912  43.811  0.00  0.00    +0.000 A 
ATOM      3  C   UNL     1      13.073  13.361  44.189  0.00  0.00    +0.000 A 
ATOM      4  C   UNL     1      10.694  13.981  43.779  0.00  0.00    +0.000 A 
ATOM      5  C   UNL     1      13.312  14.705  44.450  0.00  0.00    +0.000 A 
ATOM      6  C   UNL     1      14.207  12.453  44.318  0.00  0.00    +0.000 A 
ATOM      7  C   UNL     1      11.053  15.287  44.057  0.00  0.00    +0.000 A 
ATOM      8  O   UNL     1      12.351  15.702  44.346  0.00  0.00    +0.000 OA
ATOM      9  C   UNL     1      14.650  15.129  44.834  0.00  0.00    +0.000 A 
ATOM     10  C   UNL     1      15.470  12.888  44.692  0.00  0.00    +0.000 A 
ATOM     11  C   UNL     1      15.706  14.224  44.954  0.00  0.00    +0.000 A 
ENDROOT
BRANCH   4  12
ATOM     12  C   UNL     1       9.613  13.777  43.549  0.00  0.00    +0.000 A 
ATOM     13  C   UNL     1       8.635  13.526  44.538  0.00  0.00    +0.000 A 
ATOM     14  C   UNL     1       9.185  13.822  42.204  0.00  0.00    +0.000 A 
ATOM     15  C   UNL     1       7.290  13.330  44.192  0.00  0.00    +0.000 A 
ATOM     16  C   UNL     1       7.841  13.622  41.875  0.00  0.00    +0.000 A 
ATOM     17  C   UNL     1       6.882  13.379  42.859  0.00  0.00    +0.000 A 
BRANCH  17  18
ATOM     18  O   UNL     1       5.568  13.197  42.483  0.00  0.00    +0.000 OA
ATOM     19  H   UNL     1       4.957  13.947  42.667  0.00  0.00    +0.000 HD
ENDBRANCH  17  18
ENDBRANCH   4  12
BRANCH   6  20
ATOM     20  O   UNL     1      14.088  11.124  44.074  0.00  0.00    +0.000 OA
ATOM     21  H   UNL     1      13.621  11.052  43.225  0.00  0.00    +0.000 HD
ENDBRANCH   6  20
BRANCH  11  22
ATOM     22  O   UNL     1      16.978  14.584  45.315  0.00  0.00    +0.000 OA
ATOM     23  H   UNL     1      17.387  13.993  45.965  0.00  0.00    +0.000 HD
ENDBRANCH  11  22
TORSDOF 4
ENDMDL
MODEL 7
REMARK VINA RESULT:    -5.829      1.477      6.543
REMARK INTER + INTRA:          -6.959
REMARK INTER:                  -6.661
REMARK INTRA:                  -0.298
REMARK UNBOUND:                -0.278
REMARK  Name = opt70.pdb
REMARK  4 active torsions:
REMARK  status: ('A' for Active; 'I' for Inactive)
REMARK    1  A    between atoms: C_4  and  C_7
REMARK    2  A    between atoms: C_6  and  O_11
REMARK    3  A    between atoms: C_15  and  O_18
REMARK    4  A    between atoms: C_19  and  O_20
REMARK                            x       y       z     vdW  Elec       q    Type
REMARK                         _______ _______ _______ _____ _____    ______ ____
ROOT
ATOM      1  O   UNL     1      13.806  11.991  43.627  0.00  0.00    +0.000 OA
ATOM      2  C   UNL     1      13.296  13.087  43.786  0.00  0.00    +0.000 A 
ATOM      3  C   UNL     1      11.837  13.320  43.681  0.00  0.00    +0.000 A 
ATOM      4  C   UNL     1      14.099  14.294  44.071  0.00  0.00    +0.000 A 
ATOM      5  C   UNL     1      11.324  14.596  43.878  0.00  0.00    +0.000 A 
ATOM      6  C   UNL     1      10.880  12.266  43.365  0.00  0.00    +0.000 A 
ATOM      7  C   UNL     1      13.472  15.514  44.249  0.00  0.00    +0.000 A 
ATOM      8  O   UNL     1      12.092  15.703  44.212  0.00  0.00    +0.000 OA
ATOM      9  C   UNL     1       9.890  14.812  43.758  0.00  0.00    +0.000 A 
ATOM     10  C   UNL     1       9.519  12.506  43.251  0.00  0.00    +0.000 A 
ATOM     11  C   UNL     1       9.009  13.776  43.444  0.00  0.00    +0.000 A 
ENDROOT
BRANCH   4  12
ATOM     12  C   UNL     1      15.220  14.272  44.136  0.00  0.00    +0.000 A 
ATOM     13  C   UNL     1      16.072  14.326  43.010  0.00  0.00    +0.000 A 
ATOM     14  C   UNL     1      15.826  14.241  45.412  0.00  0.00    +0.000 A 
ATOM     15  C   UNL     1      17.466  14.347  43.158  0.00  0.00    +0.000 A 
ATOM     16  C   UNL     1      17.217  14.260  45.543  0.00  0.00    +0.000 A 
ATOM     17  C   UNL     1      18.050  14.318  44.425  0.00  0.00    +0.000 A 
BRANCH  17  18
ATOM     18  O   UNL     1      19.416  14.343  44.608  0.00  0.00    +0.000 OA
ATOM     19  H   UNL     1      19.797  15.201  44.907  0.00  0.00    +0.000 HD
ENDBRANCH  17  18
ENDBRANCH   4  12
BRANCH   6  20
ATOM     20  O   UNL     1      11.273  10.982  43.167  0.00  0.00    +0.000 OA
ATOM     21  H   UNL     1      10.475  10.500  42.899  0.00  0.00    +0.000 HD
ENDBRANCH   6  20
BRANCH  11  22
ATOM     22  O   UNL     1       7.654  13.939  43.321  0.00  0.00    +0.000 OA
ATOM     23  H   UNL     1       7.287  13.588  42.496  0.00  0.00    +0.000 HD
ENDBRANCH  11  22
TORSDOF 4
ENDMDL
MODEL 8
REMARK VINA RESULT:    -5.754      1.447      6.912
REMARK INTER + INTRA:          -6.873
REMARK INTER:                  -6.560
REMARK INTRA:                  -0.313
REMARK UNBOUND:                -0.278
REMARK  Name = opt70.pdb
REMARK  4 active torsions:
REMARK  status: ('A' for Active; 'I' for Inactive)
REMARK    1  A    between atoms: C_4  and  C_7
REMARK    2  A    between atoms: C_6  and  O_11
REMARK    3  A    between atoms: C_15  and  O_18
REMARK    4  A    between atoms: C_19  and  O_20
REMARK                            x       y       z     vdW  Elec       q    Type
REMARK                         _______ _______ _______ _____ _____    ______ ____
ROOT
ATOM      1  O   UNL     1      11.867  15.655  44.077  0.00  0.00    +0.000 OA
ATOM      2  C   UNL     1      11.560  14.498  43.847  0.00  0.00    +0.000 A 
ATOM      3  C   UNL     1      10.161  14.065  43.629  0.00  0.00    +0.000 A 
ATOM      4  C   UNL     1      12.562  13.414  43.793  0.00  0.00    +0.000 A 
ATOM      5  C   UNL     1       9.883  12.728  43.368  0.00  0.00    +0.000 A 
ATOM      6  C   UNL     1       9.023  14.975  43.684  0.00  0.00    +0.000 A 
ATOM      7  C   UNL     1      12.164  12.118  43.521  0.00  0.00    +0.000 A 
ATOM      8  O   UNL     1      10.850  11.738  43.254  0.00  0.00    +0.000 OA
ATOM      9  C   UNL     1       8.502  12.314  43.170  0.00  0.00    +0.000 A 
ATOM     10  C   UNL     1       7.717  14.548  43.498  0.00  0.00    +0.000 A 
ATOM     11  C   UNL     1       7.442  13.218  43.240  0.00  0.00    +0.000 A 
ENDROOT
BRANCH   4  12
ATOM     12  C   UNL     1      13.655  13.593  43.981  0.00  0.00    +0.000 A 
ATOM     13  C   UNL     1      14.257  13.499  45.256  0.00  0.00    +0.000 A 
ATOM     14  C   UNL     1      14.495  13.878  42.882  0.00  0.00    +0.000 A 
ATOM     15  C   UNL     1      15.637  13.681  45.420  0.00  0.00    +0.000 A 
ATOM     16  C   UNL     1      15.870  14.060  43.061  0.00  0.00    +0.000 A 
ATOM     17  C   UNL     1      16.455  13.961  44.324  0.00  0.00    +0.000 A 
BRANCH  17  18
ATOM     18  O   UNL     1      17.816  14.141  44.447  0.00  0.00    +0.000 OA
ATOM     19  H   UNL     1      18.125  15.073  44.528  0.00  0.00    +0.000 HD
ENDBRANCH  17  18
ENDBRANCH   4  12
BRANCH   6  20
ATOM     20  O   UNL     1       9.184  16.302  43.920  0.00  0.00    +0.000 OA
ATOM     21  H   UNL     1       8.632  16.755  43.262  0.00  0.00    +0.000 HD
ENDBRANCH   6  20
BRANCH  11  22
ATOM     22  O   UNL     1       6.129  12.867  43.062  0.00  0.00    +0.000 OA
ATOM     23  H   UNL     1       5.911  12.598  42.156  0.00  0.00    +0.000 HD
ENDBRANCH  11  22
TORSDOF 4
ENDMDL
MODEL 9
REMARK VINA RESULT:    -5.734      0.925      2.295
REMARK INTER + INTRA:          -6.849
REMARK INTER:                  -6.536
REMARK INTRA:                  -0.313
REMARK UNBOUND:                -0.278
REMARK  Name = opt70.pdb
REMARK  4 active torsions:
REMARK  status: ('A' for Active; 'I' for Inactive)
REMARK    1  A    between atoms: C_4  and  C_7
REMARK    2  A    between atoms: C_6  and  O_11
REMARK    3  A    between atoms: C_15  and  O_18
REMARK    4  A    between atoms: C_19  and  O_20
REMARK                            x       y       z     vdW  Elec       q    Type
REMARK                         _______ _______ _______ _____ _____    ______ ____
ROOT
ATOM      1  O   UNL     1      11.548  16.055  44.099  0.00  0.00    +0.000 OA
ATOM      2  C   UNL     1      12.041  14.942  44.159  0.00  0.00    +0.000 A 
ATOM      3  C   UNL     1      13.459  14.707  44.517  0.00  0.00    +0.000 A 
ATOM      4  C   UNL     1      11.269  13.722  43.846  0.00  0.00    +0.000 A 
ATOM      5  C   UNL     1      13.954  13.410  44.568  0.00  0.00    +0.000 A 
ATOM      6  C   UNL     1      14.396  15.782  44.818  0.00  0.00    +0.000 A 
ATOM      7  C   UNL     1      11.872  12.481  43.934  0.00  0.00    +0.000 A 
ATOM      8  O   UNL     1      13.190  12.273  44.337  0.00  0.00    +0.000 OA
ATOM      9  C   UNL     1      15.352  13.194  44.909  0.00  0.00    +0.000 A 
ATOM     10  C   UNL     1      15.726  15.545  45.132  0.00  0.00    +0.000 A 
ATOM     11  C   UNL     1      16.218  14.254  45.181  0.00  0.00    +0.000 A 
ENDROOT
BRANCH   4  12
ATOM     12  C   UNL     1      10.194  13.754  43.519  0.00  0.00    +0.000 A 
ATOM     13  C   UNL     1       9.789  13.831  42.167  0.00  0.00    +0.000 A 
ATOM     14  C   UNL     1       9.183  13.664  44.500  0.00  0.00    +0.000 A 
ATOM     15  C   UNL     1       8.431  13.816  41.818  0.00  0.00    +0.000 A 
ATOM     16  C   UNL     1       7.833  13.652  44.136  0.00  0.00    +0.000 A 
ATOM     17  C   UNL     1       7.443  13.724  42.799  0.00  0.00    +0.000 A 
BRANCH  17  18
ATOM     18  O   UNL     1       6.099  13.700  42.491  0.00  0.00    +0.000 OA
ATOM     19  H   UNL     1       5.822  13.046  41.809  0.00  0.00    +0.000 HD
ENDBRANCH  17  18
ENDBRANCH   4  12
BRANCH   6  20
ATOM     20  O   UNL     1      14.014  17.084  44.809  0.00  0.00    +0.000 OA
ATOM     21  H   UNL     1      14.519  17.512  45.519  0.00  0.00    +0.000 HD
ENDBRANCH   6  20
BRANCH  11  22
ATOM     22  O   UNL     1      17.541  14.094  45.503  0.00  0.00    +0.000 OA
ATOM     23  H   UNL     1      18.048  13.589  44.849  0.00  0.00    +0.000 HD
ENDBRANCH  11  22
TORSDOF 4
ENDMDL
MODEL 10
REMARK VINA RESULT:    -5.678      1.442      6.595
REMARK INTER + INTRA:          -6.785
REMARK INTER:                  -6.583
REMARK INTRA:                  -0.202
REMARK UNBOUND:                -0.278
REMARK  Name = opt70.pdb
REMARK  4 active torsions:
REMARK  status: ('A' for Active; 'I' for Inactive)
REMARK    1  A    between atoms: C_4  and  C_7
REMARK    2  A    between atoms: C_6  and  O_11
REMARK    3  A    between atoms: C_15  and  O_18
REMARK    4  A    between atoms: C_19  and  O_20
REMARK                            x       y       z     vdW  Elec       q    Type
REMARK                         _______ _______ _______ _____ _____    ______ ____
ROOT
ATOM      1  O   UNL     1      13.578  12.009  43.381  0.00  0.00    +0.000 OA
ATOM      2  C   UNL     1      13.015  13.074  43.570  0.00  0.00    +0.000 A 
ATOM      3  C   UNL     1      11.560  13.262  43.374  0.00  0.00    +0.000 A 
ATOM      4  C   UNL     1      13.748  14.287  43.986  0.00  0.00    +0.000 A 
ATOM      5  C   UNL     1      10.984  14.504  43.611  0.00  0.00    +0.000 A 
ATOM      6  C   UNL     1      10.669  12.199  42.924  0.00  0.00    +0.000 A 
ATOM      7  C   UNL     1      13.064  15.470  44.194  0.00  0.00    +0.000 A 
ATOM      8  O   UNL     1      11.684  15.614  44.069  0.00  0.00    +0.000 OA
ATOM      9  C   UNL     1       9.555  14.679  43.401  0.00  0.00    +0.000 A 
ATOM     10  C   UNL     1       9.311  12.398  42.726  0.00  0.00    +0.000 A 
ATOM     11  C   UNL     1       8.740  13.635  42.960  0.00  0.00    +0.000 A 
ENDROOT
BRANCH   4  12
ATOM     12  C   UNL     1      14.863  14.299  44.132  0.00  0.00    +0.000 A 
ATOM     13  C   UNL     1      15.489  14.256  45.398  0.00  0.00    +0.000 A 
ATOM     14  C   UNL     1      15.696  14.308  42.992  0.00  0.00    +0.000 A 
ATOM     15  C   UNL     1      16.885  14.223  45.514  0.00  0.00    +0.000 A 
ATOM     16  C   UNL     1      17.088  14.276  43.123  0.00  0.00    +0.000 A 
ATOM     17  C   UNL     1      17.696  14.229  44.377  0.00  0.00    +0.000 A 
BRANCH  17  18
ATOM     18  O   UNL     1      19.072  14.191  44.453  0.00  0.00    +0.000 OA
ATOM     19  H   UNL     1      19.556  14.281  43.600  0.00  0.00    +0.000 HD
ENDBRANCH  17  18
ENDBRANCH   4  12
BRANCH   6  20
ATOM     20  O   UNL     1      11.125  10.945  42.676  0.00  0.00    +0.000 OA
ATOM     21  H   UNL     1      10.363  10.450  42.335  0.00  0.00    +0.000 HD
ENDBRANCH   6  20
BRANCH  11  22
ATOM     22  O   UNL     1       7.392  13.759  42.749  0.00  0.00    +0.000 OA
ATOM     23  H   UNL     1       7.153  13.969  41.833  0.00  0.00    +0.000 HD
ENDBRANCH  11  22
TORSDOF 4
ENDMDL
MODEL 11
REMARK VINA RESULT:    -5.675      1.852      3.058
REMARK INTER + INTRA:          -6.782
REMARK INTER:                  -6.506
REMARK INTRA:                  -0.276
REMARK UNBOUND:                -0.278
REMARK  Name = opt70.pdb
REMARK  4 active torsions:
REMARK  status: ('A' for Active; 'I' for Inactive)
REMARK    1  A    between atoms: C_4  and  C_7
REMARK    2  A    between atoms: C_6  and  O_11
REMARK    3  A    between atoms: C_15  and  O_18
REMARK    4  A    between atoms: C_19  and  O_20
REMARK                            x       y       z     vdW  Elec       q    Type
REMARK                         _______ _______ _______ _____ _____    ______ ____
ROOT
ATOM      1  O   UNL     1      13.764  15.096  42.181  0.00  0.00    +0.000 OA
ATOM      2  C   UNL     1      14.252  14.640  43.201  0.00  0.00    +0.000 A 
ATOM      3  C   UNL     1      15.622  14.971  43.657  0.00  0.00    +0.000 A 
ATOM      4  C   UNL     1      13.525  13.685  44.063  0.00  0.00    +0.000 A 
ATOM      5  C   UNL     1      16.113  14.417  44.833  0.00  0.00    +0.000 A 
ATOM      6  C   UNL     1      16.515  15.861  42.924  0.00  0.00    +0.000 A 
ATOM      7  C   UNL     1      14.120  13.201  45.213  0.00  0.00    +0.000 A 
ATOM      8  O   UNL     1      15.385  13.575  45.663  0.00  0.00    +0.000 OA
ATOM      9  C   UNL     1      17.466  14.741  45.261  0.00  0.00    +0.000 A 
ATOM     10  C   UNL     1      17.802  16.145  43.356  0.00  0.00    +0.000 A 
ATOM     11  C   UNL     1      18.291  15.591  44.524  0.00  0.00    +0.000 A 
ENDROOT
BRANCH   4  12
ATOM     12  C   UNL     1      12.494  13.313  43.815  0.00  0.00    +0.000 A 
ATOM     13  C   UNL     1      11.308  13.916  44.291  0.00  0.00    +0.000 A 
ATOM     14  C   UNL     1      12.361  12.212  42.941  0.00  0.00    +0.000 A 
ATOM     15  C   UNL     1      10.048  13.437  43.906  0.00  0.00    +0.000 A 
ATOM     16  C   UNL     1      11.098  11.744  42.568  0.00  0.00    +0.000 A 
ATOM     17  C   UNL     1       9.933  12.349  43.039  0.00  0.00    +0.000 A 
BRANCH  17  18
ATOM     18  O   UNL     1       8.711  11.855  42.635  0.00  0.00    +0.000 OA
ATOM     19  H   UNL     1       8.136  11.487  43.345  0.00  0.00    +0.000 HD
ENDBRANCH  17  18
ENDBRANCH   4  12
BRANCH   6  20
ATOM     20  O   UNL     1      16.131  16.465  41.772  0.00  0.00    +0.000 OA
ATOM     21  H   UNL     1      15.774  17.329  42.033  0.00  0.00    +0.000 HD
ENDBRANCH   6  20
BRANCH  11  22
ATOM     22  O   UNL     1      19.570  15.919  44.893  0.00  0.00    +0.000 OA
ATOM     23  H   UNL     1      19.707  15.959  45.851  0.00  0.00    +0.000 HD
ENDBRANCH  11  22
TORSDOF 4
ENDMDL
MODEL 12
REMARK VINA RESULT:    -5.546      1.984      6.862
REMARK INTER + INTRA:          -6.634
REMARK INTER:                  -6.349
REMARK INTRA:                  -0.284
REMARK UNBOUND:                -0.278
REMARK  Name = opt70.pdb
REMARK  4 active torsions:
REMARK  status: ('A' for Active; 'I' for Inactive)
REMARK    1  A    between atoms: C_4  and  C_7
REMARK    2  A    between atoms: C_6  and  O_11
REMARK    3  A    between atoms: C_15  and  O_18
REMARK    4  A    between atoms: C_19  and  O_20
REMARK                            x       y       z     vdW  Elec       q    Type
REMARK                         _______ _______ _______ _____ _____    ______ ____
ROOT
ATOM      1  O   UNL     1       9.907  13.348  44.836  0.00  0.00    +0.000 OA
ATOM      2  C   UNL     1      10.046  13.759  43.697  0.00  0.00    +0.000 A 
ATOM      3  C   UNL     1       8.904  14.033  42.794  0.00  0.00    +0.000 A 
ATOM      4  C   UNL     1      11.378  13.992  43.102  0.00  0.00    +0.000 A 
ATOM      5  C   UNL     1       9.136  14.503  41.507  0.00  0.00    +0.000 A 
ATOM      6  C   UNL     1       7.513  13.825  43.179  0.00  0.00    +0.000 A 
ATOM      7  C   UNL     1      11.483  14.464  41.806  0.00  0.00    +0.000 A 
ATOM      8  O   UNL     1      10.396  14.780  40.993  0.00  0.00    +0.000 OA
ATOM      9  C   UNL     1       8.005  14.755  40.627  0.00  0.00    +0.000 A 
ATOM     10  C   UNL     1       6.457  14.069  42.314  0.00  0.00    +0.000 A 
ATOM     11  C   UNL     1       6.689  14.534  41.033  0.00  0.00    +0.000 A 
ENDROOT
BRANCH   4  12
ATOM     12  C   UNL     1      12.332  13.785  43.658  0.00  0.00    +0.000 A 
ATOM     13  C   UNL     1      12.895  12.497  43.797  0.00  0.00    +0.000 A 
ATOM     14  C   UNL     1      13.045  14.872  44.210  0.00  0.00    +0.000 A 
ATOM     15  C   UNL     1      14.117  12.309  44.459  0.00  0.00    +0.000 A 
ATOM     16  C   UNL     1      14.261  14.669  44.869  0.00  0.00    +0.000 A 
ATOM     17  C   UNL     1      14.811  13.393  44.997  0.00  0.00    +0.000 A 
BRANCH  17  18
ATOM     18  O   UNL     1      16.017  13.246  45.649  0.00  0.00    +0.000 OA
ATOM     19  H   UNL     1      16.102  12.455  46.229  0.00  0.00    +0.000 HD
ENDBRANCH  17  18
ENDBRANCH   4  12
BRANCH   6  20
ATOM     20  O   UNL     1       7.174  13.382  44.416  0.00  0.00    +0.000 OA
ATOM     21  H   UNL     1       7.131  12.415  44.347  0.00  0.00    +0.000 HD
ENDBRANCH   6  20
BRANCH  11  22
ATOM     22  O   UNL     1       5.598  14.757  40.234  0.00  0.00    +0.000 OA
ATOM     23  H   UNL     1       5.779  14.673  39.286  0.00  0.00    +0.000 HD
ENDBRANCH  11  22
TORSDOF 4
ENDMDL
MODEL 13
REMARK VINA RESULT:    -5.510      0.897      2.517
REMARK INTER + INTRA:          -6.594
REMARK INTER:                  -6.383
REMARK INTRA:                  -0.211
REMARK UNBOUND:                -0.278
REMARK  Name = opt70.pdb
REMARK  4 active torsions:
REMARK  status: ('A' for Active; 'I' for Inactive)
REMARK    1  A    between atoms: C_4  and  C_7
REMARK    2  A    between atoms: C_6  and  O_11
REMARK    3  A    between atoms: C_15  and  O_18
REMARK    4  A    between atoms: C_19  and  O_20
REMARK                            x       y       z     vdW  Elec       q    Type
REMARK                         _______ _______ _______ _____ _____    ______ ____
ROOT
ATOM      1  O   UNL     1      11.306  15.783  44.275  0.00  0.00    +0.000 OA
ATOM      2  C   UNL     1      11.902  14.724  44.178  0.00  0.00    +0.000 A 
ATOM      3  C   UNL     1      13.355  14.591  44.433  0.00  0.00    +0.000 A 
ATOM      4  C   UNL     1      11.227  13.477  43.764  0.00  0.00    +0.000 A 
ATOM      5  C   UNL     1      13.969  13.352  44.306  0.00  0.00    +0.000 A 
ATOM      6  C   UNL     1      14.206  15.713  44.810  0.00  0.00    +0.000 A 
ATOM      7  C   UNL     1      11.947  12.299  43.675  0.00  0.00    +0.000 A 
ATOM      8  O   UNL     1      13.300  12.178  43.982  0.00  0.00    +0.000 OA
ATOM      9  C   UNL     1      15.400  13.239  44.546  0.00  0.00    +0.000 A 
ATOM     10  C   UNL     1      15.569  15.574  45.025  0.00  0.00    +0.000 A 
ATOM     11  C   UNL     1      16.180  14.341  44.896  0.00  0.00    +0.000 A 
ENDROOT
BRANCH   4  12
ATOM     12  C   UNL     1      10.136  13.440  43.499  0.00  0.00    +0.000 A 
ATOM     13  C   UNL     1       9.094  13.533  44.449  0.00  0.00    +0.000 A 
ATOM     14  C   UNL     1       9.772  13.346  42.137  0.00  0.00    +0.000 A 
ATOM     15  C   UNL     1       7.750  13.533  44.051  0.00  0.00    +0.000 A 
ATOM     16  C   UNL     1       8.427  13.344  41.756  0.00  0.00    +0.000 A 
ATOM     17  C   UNL     1       7.406  13.441  42.701  0.00  0.00    +0.000 A 
BRANCH  17  18
ATOM     18  O   UNL     1       6.095  13.444  42.274  0.00  0.00    +0.000 OA
ATOM     19  H   UNL     1       5.575  14.255  42.475  0.00  0.00    +0.000 HD
ENDBRANCH  17  18
ENDBRANCH   4  12
BRANCH   6  20
ATOM     20  O   UNL     1      13.706  16.964  44.974  0.00  0.00    +0.000 OA
ATOM     21  H   UNL     1      12.741  16.863  44.986  0.00  0.00    +0.000 HD
ENDBRANCH   6  20
BRANCH  11  22
ATOM     22  O   UNL     1      17.530  14.276  45.129  0.00  0.00    +0.000 OA
ATOM     23  H   UNL     1      18.074  14.552  44.376  0.00  0.00    +0.000 HD
ENDBRANCH  11  22
TORSDOF 4
ENDMDL
MODEL 14
REMARK VINA RESULT:    -5.497      2.203      6.991
REMARK INTER + INTRA:          -6.578
REMARK INTER:                  -6.383
REMARK INTRA:                  -0.195
REMARK UNBOUND:                -0.278
REMARK  Name = opt70.pdb
REMARK  4 active torsions:
REMARK  status: ('A' for Active; 'I' for Inactive)
REMARK    1  A    between atoms: C_4  and  C_7
REMARK    2  A    between atoms: C_6  and  O_11
REMARK    3  A    between atoms: C_15  and  O_18
REMARK    4  A    between atoms: C_19  and  O_20
REMARK                            x       y       z     vdW  Elec       q    Type
REMARK                         _______ _______ _______ _____ _____    ______ ____
ROOT
ATOM      1  O   UNL     1      10.712  16.874  42.603  0.00  0.00    +0.000 OA
ATOM      2  C   UNL     1      10.775  15.793  43.163  0.00  0.00    +0.000 A 
ATOM      3  C   UNL     1       9.834  14.685  42.883  0.00  0.00    +0.000 A 
ATOM      4  C   UNL     1      11.785  15.503  44.201  0.00  0.00    +0.000 A 
ATOM      5  C   UNL     1       9.966  13.477  43.558  0.00  0.00    +0.000 A 
ATOM      6  C   UNL     1       8.740  14.787  41.925  0.00  0.00    +0.000 A 
ATOM      7  C   UNL     1      11.820  14.258  44.803  0.00  0.00    +0.000 A 
ATOM      8  O   UNL     1      10.968  13.204  44.480  0.00  0.00    +0.000 OA
ATOM      9  C   UNL     1       9.026  12.401  43.282  0.00  0.00    +0.000 A 
ATOM     10  C   UNL     1       7.855  13.745  41.689  0.00  0.00    +0.000 A 
ATOM     11  C   UNL     1       7.986  12.545  42.362  0.00  0.00    +0.000 A 
ENDROOT
BRANCH   4  12
ATOM     12  C   UNL     1      12.536  16.266  44.543  0.00  0.00    +0.000 A 
ATOM     13  C   UNL     1      12.203  17.402  45.315  0.00  0.00    +0.000 A 
ATOM     14  C   UNL     1      13.899  16.064  44.234  0.00  0.00    +0.000 A 
ATOM     15  C   UNL     1      13.192  18.292  45.757  0.00  0.00    +0.000 A 
ATOM     16  C   UNL     1      14.874  16.961  44.679  0.00  0.00    +0.000 A 
ATOM     17  C   UNL     1      14.535  18.077  45.445  0.00  0.00    +0.000 A 
BRANCH  17  18
ATOM     18  O   UNL     1      15.534  18.928  45.867  0.00  0.00    +0.000 OA
ATOM     19  H   UNL     1      16.253  18.520  46.404  0.00  0.00    +0.000 HD
ENDBRANCH  17  18
ENDBRANCH   4  12
BRANCH   6  20
ATOM     20  O   UNL     1       8.528  15.917  41.203  0.00  0.00    +0.000 OA
ATOM     21  H   UNL     1       8.844  15.720  40.306  0.00  0.00    +0.000 HD
ENDBRANCH   6  20
BRANCH  11  22
ATOM     22  O   UNL     1       7.080  11.558  42.077  0.00  0.00    +0.000 OA
ATOM     23  H   UNL     1       7.243  10.725  42.545  0.00  0.00    +0.000 HD
ENDBRANCH  11  22
TORSDOF 4
ENDMDL
MODEL 15
REMARK VINA RESULT:    -5.482      2.505      3.818
REMARK INTER + INTRA:          -6.561
REMARK INTER:                  -6.247
REMARK INTRA:                  -0.314
REMARK UNBOUND:                -0.278
REMARK  Name = opt70.pdb
REMARK  4 active torsions:
REMARK  status: ('A' for Active; 'I' for Inactive)
REMARK    1  A    between atoms: C_4  and  C_7
REMARK    2  A    between atoms: C_6  and  O_11
REMARK    3  A    between atoms: C_15  and  O_18
REMARK    4  A    between atoms: C_19  and  O_20
REMARK                            x       y       z     vdW  Elec       q    Type
REMARK                         _______ _______ _______ _____ _____    ______ ____
ROOT
ATOM      1  O   UNL     1      11.642  15.909  43.409  0.00  0.00    +0.000 OA
ATOM      2  C   UNL     1      11.417  14.755  43.088  0.00  0.00    +0.000 A 
ATOM      3  C   UNL     1      12.280  13.622  43.496  0.00  0.00    +0.000 A 
ATOM      4  C   UNL     1      10.272  14.386  42.232  0.00  0.00    +0.000 A 
ATOM      5  C   UNL     1      11.962  12.330  43.097  0.00  0.00    +0.000 A 
ATOM      6  C   UNL     1      13.482  13.784  44.306  0.00  0.00    +0.000 A 
ATOM      7  C   UNL     1      10.055  13.060  41.901  0.00  0.00    +0.000 A 
ATOM      8  O   UNL     1      10.839  11.999  42.348  0.00  0.00    +0.000 OA
ATOM      9  C   UNL     1      12.826  11.229  43.494  0.00  0.00    +0.000 A 
ATOM     10  C   UNL     1      14.289  12.714  44.662  0.00  0.00    +0.000 A 
ATOM     11  C   UNL     1      13.974  11.430  44.262  0.00  0.00    +0.000 A 
ENDROOT
BRANCH   4  12
ATOM     12  C   UNL     1       9.559  15.148  41.815  0.00  0.00    +0.000 A 
ATOM     13  C   UNL     1       9.741  15.794  40.571  0.00  0.00    +0.000 A 
ATOM     14  C   UNL     1       8.386  15.449  42.541  0.00  0.00    +0.000 A 
ATOM     15  C   UNL     1       8.790  16.698  40.080  0.00  0.00    +0.000 A 
ATOM     16  C   UNL     1       7.447  16.355  42.039  0.00  0.00    +0.000 A 
ATOM     17  C   UNL     1       7.634  16.984  40.808  0.00  0.00    +0.000 A 
BRANCH  17  18
ATOM     18  O   UNL     1       6.675  17.863  40.352  0.00  0.00    +0.000 OA
ATOM     19  H   UNL     1       5.783  17.482  40.183  0.00  0.00    +0.000 HD
ENDBRANCH  17  18
ENDBRANCH   4  12
BRANCH   6  20
ATOM     20  O   UNL     1      13.877  15.000  44.760  0.00  0.00    +0.000 OA
ATOM     21  H   UNL     1      14.063  15.530  43.969  0.00  0.00    +0.000 HD
ENDBRANCH   6  20
BRANCH  11  22
ATOM     22  O   UNL     1      14.813  10.420  44.654  0.00  0.00    +0.000 OA
ATOM     23  H   UNL     1      15.190   9.912  43.921  0.00  0.00    +0.000 HD
ENDBRANCH  11  22
TORSDOF 4
ENDMDL
MODEL 16
REMARK VINA RESULT:    -5.346      2.248      6.970
REMARK INTER + INTRA:          -6.405
REMARK INTER:                  -6.094
REMARK INTRA:                  -0.311
REMARK UNBOUND:                -0.278
REMARK  Name = opt70.pdb
REMARK  4 active torsions:
REMARK  status: ('A' for Active; 'I' for Inactive)
REMARK    1  A    between atoms: C_4  and  C_7
REMARK    2  A    between atoms: C_6  and  O_11
REMARK    3  A    between atoms: C_15  and  O_18
REMARK    4  A    between atoms: C_19  and  O_20
REMARK                            x       y       z     vdW  Elec       q    Type
REMARK                         _______ _______ _______ _____ _____    ______ ____
ROOT
ATOM      1  O   UNL     1      16.301  13.122  44.852  0.00  0.00    +0.000 OA
ATOM      2  C   UNL     1      15.423  13.797  44.343  0.00  0.00    +0.000 A 
ATOM      3  C   UNL     1      14.135  13.230  43.883  0.00  0.00    +0.000 A 
ATOM      4  C   UNL     1      15.580  15.248  44.112  0.00  0.00    +0.000 A 
ATOM      5  C   UNL     1      13.176  14.060  43.314  0.00  0.00    +0.000 A 
ATOM      6  C   UNL     1      13.804  11.813  43.982  0.00  0.00    +0.000 A 
ATOM      7  C   UNL     1      14.552  15.972  43.537  0.00  0.00    +0.000 A 
ATOM      8  O   UNL     1      13.320  15.434  43.170  0.00  0.00    +0.000 OA
ATOM      9  C   UNL     1      11.921  13.486  42.854  0.00  0.00    +0.000 A 
ATOM     10  C   UNL     1      12.600  11.296  43.528  0.00  0.00    +0.000 A 
ATOM     11  C   UNL     1      11.649  12.122  42.960  0.00  0.00    +0.000 A 
ENDROOT
BRANCH   4  12
ATOM     12  C   UNL     1      16.522  15.802  44.374  0.00  0.00    +0.000 A 
ATOM     13  C   UNL     1      17.639  15.899  43.514  0.00  0.00    +0.000 A 
ATOM     14  C   UNL     1      16.587  16.487  45.607  0.00  0.00    +0.000 A 
ATOM     15  C   UNL     1      18.768  16.649  43.874  0.00  0.00    +0.000 A 
ATOM     16  C   UNL     1      17.720  17.229  45.954  0.00  0.00    +0.000 A 
ATOM     17  C   UNL     1      18.815  17.322  45.096  0.00  0.00    +0.000 A 
BRANCH  17  18
ATOM     18  O   UNL     1      19.906  18.073  45.481  0.00  0.00    +0.000 OA
ATOM     19  H   UNL     1      20.768  17.826  45.074  0.00  0.00    +0.000 HD
ENDBRANCH  17  18
ENDBRANCH   4  12
BRANCH   6  20
ATOM     20  O   UNL     1      14.662  10.918  44.533  0.00  0.00    +0.000 OA
ATOM     21  H   UNL     1      14.123  10.147  44.770  0.00  0.00    +0.000 HD
ENDBRANCH   6  20
BRANCH  11  22
ATOM     22  O   UNL     1      10.480  11.543  42.537  0.00  0.00    +0.000 OA
ATOM     23  H   UNL     1      10.563  10.605  42.308  0.00  0.00    +0.000 HD
ENDBRANCH  11  22
TORSDOF 4
ENDMDL
MODEL 17
REMARK VINA RESULT:    -5.221      2.673      7.777
REMARK INTER + INTRA:          -6.262
REMARK INTER:                  -5.951
REMARK INTRA:                  -0.311
REMARK UNBOUND:                -0.278
REMARK  Name = opt70.pdb
REMARK  4 active torsions:
REMARK  status: ('A' for Active; 'I' for Inactive)
REMARK    1  A    between atoms: C_4  and  C_7
REMARK    2  A    between atoms: C_6  and  O_11
REMARK    3  A    between atoms: C_15  and  O_18
REMARK    4  A    between atoms: C_19  and  O_20
REMARK                            x       y       z     vdW  Elec       q    Type
REMARK                         _______ _______ _______ _____ _____    ______ ____
ROOT
ATOM      1  O   UNL     1      14.953  17.154  44.119  0.00  0.00    +0.000 OA
ATOM      2  C   UNL     1      15.305  16.072  44.556  0.00  0.00    +0.000 A 
ATOM      3  C   UNL     1      14.543  14.823  44.325  0.00  0.00    +0.000 A 
ATOM      4  C   UNL     1      16.516  15.917  45.387  0.00  0.00    +0.000 A 
ATOM      5  C   UNL     1      15.006  13.623  44.852  0.00  0.00    +0.000 A 
ATOM      6  C   UNL     1      13.299  14.774  43.567  0.00  0.00    +0.000 A 
ATOM      7  C   UNL     1      16.877  14.666  45.855  0.00  0.00    +0.000 A 
ATOM      8  O   UNL     1      16.185  13.490  45.573  0.00  0.00    +0.000 OA
ATOM      9  C   UNL     1      14.240  12.406  44.629  0.00  0.00    +0.000 A 
ATOM     10  C   UNL     1      12.588  13.599  43.378  0.00  0.00    +0.000 A 
ATOM     11  C   UNL     1      13.047  12.406  43.904  0.00  0.00    +0.000 A 
ENDROOT
BRANCH   4  12
ATOM     12  C   UNL     1      17.166  16.786  45.677  0.00  0.00    +0.000 A 
ATOM     13  C   UNL     1      16.918  17.610  46.798  0.00  0.00    +0.000 A 
ATOM     14  C   UNL     1      18.326  17.051  44.916  0.00  0.00    +0.000 A 
ATOM     15  C   UNL     1      17.795  18.650  47.139  0.00  0.00    +0.000 A 
ATOM     16  C   UNL     1      19.189  18.093  45.267  0.00  0.00    +0.000 A 
ATOM     17  C   UNL     1      18.938  18.898  46.378  0.00  0.00    +0.000 A 
BRANCH  17  18
ATOM     18  O   UNL     1      19.825  19.907  46.688  0.00  0.00    +0.000 OA
ATOM     19  H   UNL     1      19.908  20.133  47.643  0.00  0.00    +0.000 HD
ENDBRANCH  17  18
ENDBRANCH   4  12
BRANCH   6  20
ATOM     20  O   UNL     1      12.766  15.885  42.999  0.00  0.00    +0.000 OA
ATOM     21  H   UNL     1      11.969  15.587  42.532  0.00  0.00    +0.000 HD
ENDBRANCH   6  20
BRANCH  11  22
ATOM     22  O   UNL     1      12.297  11.282  43.673  0.00  0.00    +0.000 OA
ATOM     23  H   UNL     1      12.798  10.542  43.301  0.00  0.00    +0.000 HD
ENDBRANCH  11  22
TORSDOF 4
ENDMDL
MODEL 18
REMARK VINA RESULT:    -5.165      2.073      2.399
REMARK INTER + INTRA:          -6.198
REMARK INTER:                  -5.891
REMARK INTRA:                  -0.307
REMARK UNBOUND:                -0.278
REMARK  Name = opt70.pdb
REMARK  4 active torsions:
REMARK  status: ('A' for Active; 'I' for Inactive)
REMARK    1  A    between atoms: C_4  and  C_7
REMARK    2  A    between atoms: C_6  and  O_11
REMARK    3  A    between atoms: C_15  and  O_18
REMARK    4  A    between atoms: C_19  and  O_20
REMARK                            x       y       z     vdW  Elec       q    Type
REMARK                         _______ _______ _______ _____ _____    ______ ____
ROOT
ATOM      1  O   UNL     1      11.475  13.635  44.253  0.00  0.00    +0.000 OA
ATOM      2  C   UNL     1      12.223  14.567  44.011  0.00  0.00    +0.000 A 
ATOM      3  C   UNL     1      13.651  14.575  44.403  0.00  0.00    +0.000 A 
ATOM      4  C   UNL     1      11.759  15.791  43.327  0.00  0.00    +0.000 A 
ATOM      5  C   UNL     1      14.448  15.671  44.093  0.00  0.00    +0.000 A 
ATOM      6  C   UNL     1      14.289  13.480  45.124  0.00  0.00    +0.000 A 
ATOM      7  C   UNL     1      12.649  16.818  43.070  0.00  0.00    +0.000 A 
ATOM      8  O   UNL     1      14.005  16.783  43.387  0.00  0.00    +0.000 OA
ATOM      9  C   UNL     1      15.846  15.671  44.496  0.00  0.00    +0.000 A 
ATOM     10  C   UNL     1      15.623  13.514  45.501  0.00  0.00    +0.000 A 
ATOM     11  C   UNL     1      16.414  14.605  45.194  0.00  0.00    +0.000 A 
ENDROOT
BRANCH   4  12
ATOM     12  C   UNL     1      10.691  15.939  43.011  0.00  0.00    +0.000 A 
ATOM     13  C   UNL     1       9.723  16.595  43.803  0.00  0.00    +0.000 A 
ATOM     14  C   UNL     1      10.294  15.492  41.731  0.00  0.00    +0.000 A 
ATOM     15  C   UNL     1       8.417  16.795  43.332  0.00  0.00    +0.000 A 
ATOM     16  C   UNL     1       8.988  15.696  41.276  0.00  0.00    +0.000 A 
ATOM     17  C   UNL     1       8.041  16.350  42.064  0.00  0.00    +0.000 A 
BRANCH  17  18
ATOM     18  O   UNL     1       6.768  16.534  41.567  0.00  0.00    +0.000 OA
ATOM     19  H   UNL     1       6.088  16.830  42.215  0.00  0.00    +0.000 HD
ENDBRANCH  17  18
ENDBRANCH   4  12
BRANCH   6  20
ATOM     20  O   UNL     1      13.606  12.358  45.465  0.00  0.00    +0.000 OA
ATOM     21  H   UNL     1      14.111  11.952  46.188  0.00  0.00    +0.000 HD
ENDBRANCH   6  20
BRANCH  11  22
ATOM     22  O   UNL     1      17.725  14.568  45.593  0.00  0.00    +0.000 OA
ATOM     23  H   UNL     1      18.222  13.811  45.248  0.00  0.00    +0.000 HD
ENDBRANCH  11  22
TORSDOF 4
ENDMDL
MODEL 19
REMARK VINA RESULT:    -5.122      1.962      6.833
REMARK INTER + INTRA:          -6.148
REMARK INTER:                  -5.861
REMARK INTRA:                  -0.287
REMARK UNBOUND:                -0.278
REMARK  Name = opt70.pdb
REMARK  4 active torsions:
REMARK  status: ('A' for Active; 'I' for Inactive)
REMARK    1  A    between atoms: C_4  and  C_7
REMARK    2  A    between atoms: C_6  and  O_11
REMARK    3  A    between atoms: C_15  and  O_18
REMARK    4  A    between atoms: C_19  and  O_20
REMARK                            x       y       z     vdW  Elec       q    Type
REMARK                         _______ _______ _______ _____ _____    ______ ____
ROOT
ATOM      1  O   UNL     1      14.853  12.309  43.564  0.00  0.00    +0.000 OA
ATOM      2  C   UNL     1      14.332  13.411  43.580  0.00  0.00    +0.000 A 
ATOM      3  C   UNL     1      12.865  13.609  43.584  0.00  0.00    +0.000 A 
ATOM      4  C   UNL     1      15.127  14.656  43.565  0.00  0.00    +0.000 A 
ATOM      5  C   UNL     1      12.339  14.895  43.606  0.00  0.00    +0.000 A 
ATOM      6  C   UNL     1      11.909  12.507  43.557  0.00  0.00    +0.000 A 
ATOM      7  C   UNL     1      14.489  15.883  43.590  0.00  0.00    +0.000 A 
ATOM      8  O   UNL     1      13.107  16.051  43.661  0.00  0.00    +0.000 OA
ATOM      9  C   UNL     1      10.895  15.074  43.596  0.00  0.00    +0.000 A 
ATOM     10  C   UNL     1      10.538  12.711  43.541  0.00  0.00    +0.000 A 
ATOM     11  C   UNL     1      10.016  13.991  43.560  0.00  0.00    +0.000 A 
ENDROOT
BRANCH   4  12
ATOM     12  C   UNL     1      16.250  14.656  43.519  0.00  0.00    +0.000 A 
ATOM     13  C   UNL     1      17.081  14.556  44.657  0.00  0.00    +0.000 A 
ATOM     14  C   UNL     1      16.877  14.709  42.255  0.00  0.00    +0.000 A 
ATOM     15  C   UNL     1      18.476  14.509  44.532  0.00  0.00    +0.000 A 
ATOM     16  C   UNL     1      18.270  14.663  42.146  0.00  0.00    +0.000 A 
ATOM     17  C   UNL     1      19.082  14.559  43.275  0.00  0.00    +0.000 A 
BRANCH  17  18
ATOM     18  O   UNL     1      20.450  14.510  43.114  0.00  0.00    +0.000 OA
ATOM     19  H   UNL     1      20.799  14.856  42.261  0.00  0.00    +0.000 HD
ENDBRANCH  17  18
ENDBRANCH   4  12
BRANCH   6  20
ATOM     20  O   UNL     1      12.315  11.212  43.548  0.00  0.00    +0.000 OA
ATOM     21  H   UNL     1      11.842  10.793  42.812  0.00  0.00    +0.000 HD
ENDBRANCH   6  20
BRANCH  11  22
ATOM     22  O   UNL     1       8.651  14.118  43.548  0.00  0.00    +0.000 OA
ATOM     23  H   UNL     1       8.330  14.960  43.903  0.00  0.00    +0.000 HD
ENDBRANCH  11  22
TORSDOF 4
ENDMDL
