MODEL 1
REMARK VINA RESULT:    -4.897      0.000      0.000
REMARK INTER + INTRA:          -5.356
REMARK INTER:                  -5.326
REMARK INTRA:                  -0.030
REMARK UNBOUND:                -0.030
REMARK  Name = opt20.pdb
REMARK  2 active torsions:
REMARK  status: ('A' for Active; 'I' for Inactive)
REMARK    1  A    between atoms: C_2  and  C_4
REMARK    2  A    between atoms: C_7  and  O_9
REMARK                            x       y       z     vdW  Elec       q    Type
REMARK                         _______ _______ _______ _____ _____    ______ ____
ROOT
ATOM      1  C   UNL     1      11.626  12.410  43.238  0.00  0.00    +0.000 A 
ATOM      2  C   UNL     1      12.784  11.639  43.376  0.00  0.00    +0.000 A 
ATOM      3  C   UNL     1      11.464  13.539  44.048  0.00  0.00    +0.000 A 
ATOM      4  C   UNL     1      13.763  11.989  44.305  0.00  0.00    +0.000 A 
ATOM      5  C   UNL     1      12.441  13.889  44.979  0.00  0.00    +0.000 A 
ATOM      6  C   UNL     1      13.591  13.114  45.108  0.00  0.00    +0.000 A 
ENDROOT
BRANCH   1   8
ATOM      7  O   UNL     1       9.443  11.835  42.635  0.00  0.00    +0.000 OA
ATOM      8  C   UNL     1      10.574  12.031  42.234  0.00  0.00    +0.000 C 
ATOM      9  O   UNL     1      10.897  11.937  41.068  0.00  0.00    +0.000 OA
ENDBRANCH   1   8
BRANCH   4  10
ATOM     10  O   UNL     1      14.894  11.234  44.429  0.00  0.00    +0.000 OA
ATOM     11  H   UNL     1      14.627  10.322  44.650  0.00  0.00    +0.000 HD
ENDBRANCH   4  10
TORSDOF 2
ENDMDL
MODEL 2
REMARK VINA RESULT:    -4.823      0.895      1.167
REMARK INTER + INTRA:          -5.276
REMARK INTER:                  -5.243
REMARK INTRA:                  -0.033
REMARK UNBOUND:                -0.030
REMARK  Name = opt20.pdb
REMARK  2 active torsions:
REMARK  status: ('A' for Active; 'I' for Inactive)
REMARK    1  A    between atoms: C_2  and  C_4
REMARK    2  A    between atoms: C_7  and  O_9
REMARK                            x       y       z     vdW  Elec       q    Type
REMARK                         _______ _______ _______ _____ _____    ______ ____
ROOT
ATOM      1  C   UNL     1      12.179  12.528  43.146  0.00  0.00    +0.000 A 
ATOM      2  C   UNL     1      12.966  11.419  43.473  0.00  0.00    +0.000 A 
ATOM      3  C   UNL     1      12.537  13.784  43.649  0.00  0.00    +0.000 A 
ATOM      4  C   UNL     1      14.090  11.561  44.286  0.00  0.00    +0.000 A 
ATOM      5  C   UNL     1      13.659  13.927  44.464  0.00  0.00    +0.000 A 
ATOM      6  C   UNL     1      14.437  12.816  44.783  0.00  0.00    +0.000 A 
ENDROOT
BRANCH   1   8
ATOM      7  O   UNL     1      10.806  13.175  41.370  0.00  0.00    +0.000 OA
ATOM      8  C   UNL     1      10.970  12.373  42.268  0.00  0.00    +0.000 C 
ATOM      9  O   UNL     1      10.210  11.452  42.492  0.00  0.00    +0.000 OA
ENDBRANCH   1   8
BRANCH   4  10
ATOM     10  O   UNL     1      14.856  10.474  44.595  0.00  0.00    +0.000 OA
ATOM     11  H   UNL     1      15.452  10.299  43.843  0.00  0.00    +0.000 HD
ENDBRANCH   4  10
TORSDOF 2
ENDMDL
MODEL 3
REMARK VINA RESULT:    -4.787      1.990      2.631
REMARK INTER + INTRA:          -5.237
REMARK INTER:                  -5.199
REMARK INTRA:                  -0.039
REMARK UNBOUND:                -0.030
REMARK  Name = opt20.pdb
REMARK  2 active torsions:
REMARK  status: ('A' for Active; 'I' for Inactive)
REMARK    1  A    between atoms: C_2  and  C_4
REMARK    2  A    between atoms: C_7  and  O_9
REMARK                            x       y       z     vdW  Elec       q    Type
REMARK                         _______ _______ _______ _____ _____    ______ ____
ROOT
ATOM      1  C   UNL     1      12.956  13.728  44.539  0.00  0.00    +0.000 A 
ATOM      2  C   UNL     1      13.321  12.386  44.393  0.00  0.00    +0.000 A 
ATOM      3  C   UNL     1      13.956  14.683  44.750  0.00  0.00    +0.000 A 
ATOM      4  C   UNL     1      14.661  12.005  44.454  0.00  0.00    +0.000 A 
ATOM      5  C   UNL     1      15.296  14.303  44.814  0.00  0.00    +0.000 A 
ATOM      6  C   UNL     1      15.650  12.964  44.666  0.00  0.00    +0.000 A 
ENDROOT
BRANCH   1   8
ATOM      7  O   UNL     1      10.669  13.260  44.427  0.00  0.00    +0.000 OA
ATOM      8  C   UNL     1      11.511  14.136  44.471  0.00  0.00    +0.000 C 
ATOM      9  O   UNL     1      11.247  15.321  44.464  0.00  0.00    +0.000 OA
ENDBRANCH   1   8
BRANCH   4  10
ATOM     10  O   UNL     1      15.010  10.694  44.303  0.00  0.00    +0.000 OA
ATOM     11  H   UNL     1      15.971  10.616  44.450  0.00  0.00    +0.000 HD
ENDBRANCH   4  10
TORSDOF 2
ENDMDL
MODEL 4
REMARK VINA RESULT:    -4.509      2.640      3.307
REMARK INTER + INTRA:          -4.935
REMARK INTER:                  -4.907
REMARK INTRA:                  -0.028
REMARK UNBOUND:                -0.030
REMARK  Name = opt20.pdb
REMARK  2 active torsions:
REMARK  status: ('A' for Active; 'I' for Inactive)
REMARK    1  A    between atoms: C_2  and  C_4
REMARK    2  A    between atoms: C_7  and  O_9
REMARK                            x       y       z     vdW  Elec       q    Type
REMARK                         _______ _______ _______ _____ _____    ______ ____
ROOT
ATOM      1  C   UNL     1      13.680  13.692  44.262  0.00  0.00    +0.000 A 
ATOM      2  C   UNL     1      14.507  13.515  45.375  0.00  0.00    +0.000 A 
ATOM      3  C   UNL     1      14.257  14.052  43.039  0.00  0.00    +0.000 A 
ATOM      4  C   UNL     1      15.887  13.693  45.269  0.00  0.00    +0.000 A 
ATOM      5  C   UNL     1      15.635  14.232  42.932  0.00  0.00    +0.000 A 
ATOM      6  C   UNL     1      16.451  14.052  44.047  0.00  0.00    +0.000 A 
ENDROOT
BRANCH   1   8
ATOM      7  O   UNL     1      11.712  12.476  43.932  0.00  0.00    +0.000 OA
ATOM      8  C   UNL     1      12.194  13.498  44.379  0.00  0.00    +0.000 C 
ATOM      9  O   UNL     1      11.540  14.370  44.915  0.00  0.00    +0.000 OA
ENDBRANCH   1   8
BRANCH   4  10
ATOM     10  O   UNL     1      16.688  13.511  46.359  0.00  0.00    +0.000 OA
ATOM     11  H   UNL     1      16.411  14.144  47.047  0.00  0.00    +0.000 HD
ENDBRANCH   4  10
TORSDOF 2
ENDMDL
MODEL 5
REMARK VINA RESULT:    -4.361      2.786      4.026
REMARK INTER + INTRA:          -4.774
REMARK INTER:                  -4.736
REMARK INTRA:                  -0.038
REMARK UNBOUND:                -0.030
REMARK  Name = opt20.pdb
REMARK  2 active torsions:
REMARK  status: ('A' for Active; 'I' for Inactive)
REMARK    1  A    between atoms: C_2  and  C_4
REMARK    2  A    between atoms: C_7  and  O_9
REMARK                            x       y       z     vdW  Elec       q    Type
REMARK                         _______ _______ _______ _____ _____    ______ ____
ROOT
ATOM      1  C   UNL     1      14.149  14.049  44.396  0.00  0.00    +0.000 A 
ATOM      2  C   UNL     1      14.859  12.858  44.579  0.00  0.00    +0.000 A 
ATOM      3  C   UNL     1      12.838  13.988  43.911  0.00  0.00    +0.000 A 
ATOM      4  C   UNL     1      14.271  11.628  44.285  0.00  0.00    +0.000 A 
ATOM      5  C   UNL     1      12.250  12.759  43.614  0.00  0.00    +0.000 A 
ATOM      6  C   UNL     1      12.965  11.578  43.801  0.00  0.00    +0.000 A 
ENDROOT
BRANCH   1   8
ATOM      7  O   UNL     1      14.059  16.332  44.886  0.00  0.00    +0.000 OA
ATOM      8  C   UNL     1      14.785  15.372  44.716  0.00  0.00    +0.000 C 
ATOM      9  O   UNL     1      15.996  15.425  44.793  0.00  0.00    +0.000 OA
ENDBRANCH   1   8
BRANCH   4  10
ATOM     10  O   UNL     1      14.969  10.470  44.473  0.00  0.00    +0.000 OA
ATOM     11  H   UNL     1      15.874  10.603  44.135  0.00  0.00    +0.000 HD
ENDBRANCH   4  10
TORSDOF 2
ENDMDL
MODEL 6
REMARK VINA RESULT:    -4.339      2.857      3.908
REMARK INTER + INTRA:          -4.750
REMARK INTER:                  -4.723
REMARK INTRA:                  -0.027
REMARK UNBOUND:                -0.030
REMARK  Name = opt20.pdb
REMARK  2 active torsions:
REMARK  status: ('A' for Active; 'I' for Inactive)
REMARK    1  A    between atoms: C_2  and  C_4
REMARK    2  A    between atoms: C_7  and  O_9
REMARK                            x       y       z     vdW  Elec       q    Type
REMARK                         _______ _______ _______ _____ _____    ______ ____
ROOT
ATOM      1  C   UNL     1      14.785  12.867  44.136  0.00  0.00    +0.000 A 
ATOM      2  C   UNL     1      15.238  13.051  42.825  0.00  0.00    +0.000 A 
ATOM      3  C   UNL     1      15.507  13.440  45.188  0.00  0.00    +0.000 A 
ATOM      4  C   UNL     1      16.389  13.795  42.570  0.00  0.00    +0.000 A 
ATOM      5  C   UNL     1      16.660  14.181  44.935  0.00  0.00    +0.000 A 
ATOM      6  C   UNL     1      17.102  14.360  43.626  0.00  0.00    +0.000 A 
ENDROOT
BRANCH   1   8
ATOM      7  O   UNL     1      12.491  12.664  44.531  0.00  0.00    +0.000 OA
ATOM      8  C   UNL     1      13.542  12.067  44.407  0.00  0.00    +0.000 C 
ATOM      9  O   UNL     1      13.641  10.859  44.489  0.00  0.00    +0.000 OA
ENDBRANCH   1   8
BRANCH   4  10
ATOM     10  O   UNL     1      16.821  13.975  41.288  0.00  0.00    +0.000 OA
ATOM     11  H   UNL     1      17.259  13.154  40.997  0.00  0.00    +0.000 HD
ENDBRANCH   4  10
TORSDOF 2
ENDMDL
MODEL 7
REMARK VINA RESULT:    -4.302      2.658      4.937
REMARK INTER + INTRA:          -4.710
REMARK INTER:                  -4.681
REMARK INTRA:                  -0.029
REMARK UNBOUND:                -0.030
REMARK  Name = opt20.pdb
REMARK  2 active torsions:
REMARK  status: ('A' for Active; 'I' for Inactive)
REMARK    1  A    between atoms: C_2  and  C_4
REMARK    2  A    between atoms: C_7  and  O_9
REMARK                            x       y       z     vdW  Elec       q    Type
REMARK                         _______ _______ _______ _____ _____    ______ ____
ROOT
ATOM      1  C   UNL     1      15.517  14.146  44.589  0.00  0.00    +0.000 A 
ATOM      2  C   UNL     1      15.091  12.815  44.640  0.00  0.00    +0.000 A 
ATOM      3  C   UNL     1      14.558  15.164  44.590  0.00  0.00    +0.000 A 
ATOM      4  C   UNL     1      13.732  12.507  44.692  0.00  0.00    +0.000 A 
ATOM      5  C   UNL     1      13.199  14.858  44.639  0.00  0.00    +0.000 A 
ATOM      6  C   UNL     1      12.784  13.529  44.691  0.00  0.00    +0.000 A 
ENDROOT
BRANCH   1   8
ATOM      7  O   UNL     1      17.422  14.968  43.514  0.00  0.00    +0.000 OA
ATOM      8  C   UNL     1      16.982  14.474  44.534  0.00  0.00    +0.000 C 
ATOM      9  O   UNL     1      17.663  14.234  45.511  0.00  0.00    +0.000 OA
ENDBRANCH   1   8
BRANCH   4  10
ATOM     10  O   UNL     1      13.324  11.205  44.749  0.00  0.00    +0.000 OA
ATOM     11  H   UNL     1      13.382  10.830  43.850  0.00  0.00    +0.000 HD
ENDBRANCH   4  10
TORSDOF 2
ENDMDL
MODEL 8
REMARK VINA RESULT:    -4.272      2.049      3.741
REMARK INTER + INTRA:          -4.677
REMARK INTER:                  -4.640
REMARK INTRA:                  -0.038
REMARK UNBOUND:                -0.030
REMARK  Name = opt20.pdb
REMARK  2 active torsions:
REMARK  status: ('A' for Active; 'I' for Inactive)
REMARK    1  A    between atoms: C_2  and  C_4
REMARK    2  A    between atoms: C_7  and  O_9
REMARK                            x       y       z     vdW  Elec       q    Type
REMARK                         _______ _______ _______ _____ _____    ______ ____
ROOT
ATOM      1  C   UNL     1      13.282  13.184  44.362  0.00  0.00    +0.000 A 
ATOM      2  C   UNL     1      11.904  13.327  44.168  0.00  0.00    +0.000 A 
ATOM      3  C   UNL     1      14.047  14.321  44.643  0.00  0.00    +0.000 A 
ATOM      4  C   UNL     1      11.302  14.581  44.253  0.00  0.00    +0.000 A 
ATOM      5  C   UNL     1      13.446  15.576  44.726  0.00  0.00    +0.000 A 
ATOM      6  C   UNL     1      12.073  15.708  44.531  0.00  0.00    +0.000 A 
ENDROOT
BRANCH   1   8
ATOM      7  O   UNL     1      13.222  10.849  44.393  0.00  0.00    +0.000 OA
ATOM      8  C   UNL     1      13.928  11.830  44.272  0.00  0.00    +0.000 C 
ATOM      9  O   UNL     1      15.126  11.775  44.080  0.00  0.00    +0.000 OA
ENDBRANCH   1   8
BRANCH   4  10
ATOM     10  O   UNL     1       9.955  14.711  44.068  0.00  0.00    +0.000 OA
ATOM     11  H   UNL     1       9.797  15.519  43.545  0.00  0.00    +0.000 HD
ENDBRANCH   4  10
TORSDOF 2
ENDMDL
MODEL 9
REMARK VINA RESULT:    -4.235      2.222      4.460
REMARK INTER + INTRA:          -4.637
REMARK INTER:                  -4.606
REMARK INTRA:                  -0.031
REMARK UNBOUND:                -0.030
REMARK  Name = opt20.pdb
REMARK  2 active torsions:
REMARK  status: ('A' for Active; 'I' for Inactive)
REMARK    1  A    between atoms: C_2  and  C_4
REMARK    2  A    between atoms: C_7  and  O_9
REMARK                            x       y       z     vdW  Elec       q    Type
REMARK                         _______ _______ _______ _____ _____    ______ ____
ROOT
ATOM      1  C   UNL     1      14.032  14.145  44.784  0.00  0.00    +0.000 A 
ATOM      2  C   UNL     1      12.827  13.436  44.736  0.00  0.00    +0.000 A 
ATOM      3  C   UNL     1      14.002  15.539  44.667  0.00  0.00    +0.000 A 
ATOM      4  C   UNL     1      11.615  14.107  44.576  0.00  0.00    +0.000 A 
ATOM      5  C   UNL     1      12.792  16.211  44.504  0.00  0.00    +0.000 A 
ATOM      6  C   UNL     1      11.597  15.496  44.459  0.00  0.00    +0.000 A 
ENDROOT
BRANCH   1   8
ATOM      7  O   UNL     1      16.066  13.762  45.868  0.00  0.00    +0.000 OA
ATOM      8  C   UNL     1      15.336  13.419  44.959  0.00  0.00    +0.000 C 
ATOM      9  O   UNL     1      15.604  12.522  44.186  0.00  0.00    +0.000 OA
ENDBRANCH   1   8
BRANCH   4  10
ATOM     10  O   UNL     1      10.443  13.408  44.537  0.00  0.00    +0.000 OA
ATOM     11  H   UNL     1      10.655  12.458  44.596  0.00  0.00    +0.000 HD
ENDBRANCH   4  10
TORSDOF 2
ENDMDL
MODEL 10
REMARK VINA RESULT:    -4.215      2.737      3.866
REMARK INTER + INTRA:          -4.615
REMARK INTER:                  -4.576
REMARK INTRA:                  -0.039
REMARK UNBOUND:                -0.030
REMARK  Name = opt20.pdb
REMARK  2 active torsions:
REMARK  status: ('A' for Active; 'I' for Inactive)
REMARK    1  A    between atoms: C_2  and  C_4
REMARK    2  A    between atoms: C_7  and  O_9
REMARK                            x       y       z     vdW  Elec       q    Type
REMARK                         _______ _______ _______ _____ _____    ______ ____
ROOT
ATOM      1  C   UNL     1      14.505  13.590  44.673  0.00  0.00    +0.000 A 
ATOM      2  C   UNL     1      15.863  13.422  44.959  0.00  0.00    +0.000 A 
ATOM      3  C   UNL     1      13.992  14.887  44.559  0.00  0.00    +0.000 A 
ATOM      4  C   UNL     1      16.695  14.529  45.127  0.00  0.00    +0.000 A 
ATOM      5  C   UNL     1      14.822  15.994  44.729  0.00  0.00    +0.000 A 
ATOM      6  C   UNL     1      16.174  15.816  45.013  0.00  0.00    +0.000 A 
ENDROOT
BRANCH   1   8
ATOM      7  O   UNL     1      14.127  11.296  44.437  0.00  0.00    +0.000 OA
ATOM      8  C   UNL     1      13.611  12.395  44.491  0.00  0.00    +0.000 C 
ATOM      9  O   UNL     1      12.414  12.579  44.405  0.00  0.00    +0.000 OA
ENDBRANCH   1   8
BRANCH   4  10
ATOM     10  O   UNL     1      18.021  14.356  45.399  0.00  0.00    +0.000 OA
ATOM     11  H   UNL     1      18.212  14.776  46.259  0.00  0.00    +0.000 HD
ENDBRANCH   4  10
TORSDOF 2
ENDMDL
MODEL 11
REMARK VINA RESULT:    -4.180      2.368      3.621
REMARK INTER + INTRA:          -4.576
REMARK INTER:                  -4.544
REMARK INTRA:                  -0.032
REMARK UNBOUND:                -0.030
REMARK  Name = opt20.pdb
REMARK  2 active torsions:
REMARK  status: ('A' for Active; 'I' for Inactive)
REMARK    1  A    between atoms: C_2  and  C_4
REMARK    2  A    between atoms: C_7  and  O_9
REMARK                            x       y       z     vdW  Elec       q    Type
REMARK                         _______ _______ _______ _____ _____    ______ ____
ROOT
ATOM      1  C   UNL     1      13.451  13.299  43.979  0.00  0.00    +0.000 A 
ATOM      2  C   UNL     1      13.982  14.115  42.976  0.00  0.00    +0.000 A 
ATOM      3  C   UNL     1      12.496  13.833  44.851  0.00  0.00    +0.000 A 
ATOM      4  C   UNL     1      13.567  15.439  42.843  0.00  0.00    +0.000 A 
ATOM      5  C   UNL     1      12.081  15.158  44.721  0.00  0.00    +0.000 A 
ATOM      6  C   UNL     1      12.616  15.962  43.717  0.00  0.00    +0.000 A 
ENDROOT
BRANCH   1   8
ATOM      7  O   UNL     1      13.049  11.011  44.230  0.00  0.00    +0.000 OA
ATOM      8  C   UNL     1      13.900  11.872  44.118  0.00  0.00    +0.000 C 
ATOM      9  O   UNL     1      15.092  11.639  44.112  0.00  0.00    +0.000 OA
ENDBRANCH   1   8
BRANCH   4  10
ATOM     10  O   UNL     1      14.086  16.227  41.856  0.00  0.00    +0.000 OA
ATOM     11  H   UNL     1      13.423  16.295  41.143  0.00  0.00    +0.000 HD
ENDBRANCH   4  10
TORSDOF 2
ENDMDL
MODEL 12
REMARK VINA RESULT:    -4.159      1.311      3.901
REMARK INTER + INTRA:          -4.554
REMARK INTER:                  -4.518
REMARK INTRA:                  -0.036
REMARK UNBOUND:                -0.030
REMARK  Name = opt20.pdb
REMARK  2 active torsions:
REMARK  status: ('A' for Active; 'I' for Inactive)
REMARK    1  A    between atoms: C_2  and  C_4
REMARK    2  A    between atoms: C_7  and  O_9
REMARK                            x       y       z     vdW  Elec       q    Type
REMARK                         _______ _______ _______ _____ _____    ______ ____
ROOT
ATOM      1  C   UNL     1      13.341  13.101  44.291  0.00  0.00    +0.000 A 
ATOM      2  C   UNL     1      12.773  12.092  43.507  0.00  0.00    +0.000 A 
ATOM      3  C   UNL     1      12.514  14.104  44.808  0.00  0.00    +0.000 A 
ATOM      4  C   UNL     1      11.403  12.083  43.245  0.00  0.00    +0.000 A 
ATOM      5  C   UNL     1      11.145  14.098  44.544  0.00  0.00    +0.000 A 
ATOM      6  C   UNL     1      10.588  13.088  43.763  0.00  0.00    +0.000 A 
ENDROOT
BRANCH   1   8
ATOM      7  O   UNL     1      15.561  12.615  43.746  0.00  0.00    +0.000 OA
ATOM      8  C   UNL     1      14.817  13.107  44.573  0.00  0.00    +0.000 C 
ATOM      9  O   UNL     1      15.203  13.602  45.612  0.00  0.00    +0.000 OA
ENDBRANCH   1   8
BRANCH   4  10
ATOM     10  O   UNL     1      10.856  11.091  42.485  0.00  0.00    +0.000 OA
ATOM     11  H   UNL     1      10.056  11.445  42.053  0.00  0.00    +0.000 HD
ENDBRANCH   4  10
TORSDOF 2
ENDMDL
MODEL 13
REMARK VINA RESULT:    -4.145      2.444      3.913
REMARK INTER + INTRA:          -4.539
REMARK INTER:                  -4.500
REMARK INTRA:                  -0.039
REMARK UNBOUND:                -0.030
REMARK  Name = opt20.pdb
REMARK  2 active torsions:
REMARK  status: ('A' for Active; 'I' for Inactive)
REMARK    1  A    between atoms: C_2  and  C_4
REMARK    2  A    between atoms: C_7  and  O_9
REMARK                            x       y       z     vdW  Elec       q    Type
REMARK                         _______ _______ _______ _____ _____    ______ ____
ROOT
ATOM      1  C   UNL     1      13.528  13.724  44.565  0.00  0.00    +0.000 A 
ATOM      2  C   UNL     1      14.419  14.801  44.604  0.00  0.00    +0.000 A 
ATOM      3  C   UNL     1      12.154  13.978  44.639  0.00  0.00    +0.000 A 
ATOM      4  C   UNL     1      13.947  16.109  44.715  0.00  0.00    +0.000 A 
ATOM      5  C   UNL     1      11.681  15.284  44.752  0.00  0.00    +0.000 A 
ATOM      6  C   UNL     1      12.576  16.351  44.790  0.00  0.00    +0.000 A 
ENDROOT
BRANCH   1   8
ATOM      7  O   UNL     1      13.237  11.407  44.504  0.00  0.00    +0.000 OA
ATOM      8  C   UNL     1      14.040  12.317  44.444  0.00  0.00    +0.000 C 
ATOM      9  O   UNL     1      15.233  12.149  44.290  0.00  0.00    +0.000 OA
ENDBRANCH   1   8
BRANCH   4  10
ATOM     10  O   UNL     1      14.823  17.155  44.746  0.00  0.00    +0.000 OA
ATOM     11  H   UNL     1      15.363  17.123  43.934  0.00  0.00    +0.000 HD
ENDBRANCH   4  10
TORSDOF 2
ENDMDL
MODEL 14
REMARK VINA RESULT:    -4.004      1.770      2.309
REMARK INTER + INTRA:          -4.386
REMARK INTER:                  -4.359
REMARK INTRA:                  -0.027
REMARK UNBOUND:                -0.030
REMARK  Name = opt20.pdb
REMARK  2 active torsions:
REMARK  status: ('A' for Active; 'I' for Inactive)
REMARK    1  A    between atoms: C_2  and  C_4
REMARK    2  A    between atoms: C_7  and  O_9
REMARK                            x       y       z     vdW  Elec       q    Type
REMARK                         _______ _______ _______ _____ _____    ______ ____
ROOT
ATOM      1  C   UNL     1      12.157  12.450  43.116  0.00  0.00    +0.000 A 
ATOM      2  C   UNL     1      11.837  13.739  43.551  0.00  0.00    +0.000 A 
ATOM      3  C   UNL     1      13.265  11.802  43.674  0.00  0.00    +0.000 A 
ATOM      4  C   UNL     1      12.607  14.371  44.527  0.00  0.00    +0.000 A 
ATOM      5  C   UNL     1      14.037  12.433  44.648  0.00  0.00    +0.000 A 
ATOM      6  C   UNL     1      13.709  13.718  45.076  0.00  0.00    +0.000 A 
ENDROOT
BRANCH   1   8
ATOM      7  O   UNL     1      10.364  11.120  42.427  0.00  0.00    +0.000 OA
ATOM      8  C   UNL     1      11.324  11.771  42.065  0.00  0.00    +0.000 C 
ATOM      9  O   UNL     1      11.645  11.903  40.902  0.00  0.00    +0.000 OA
ENDBRANCH   1   8
BRANCH   4  10
ATOM     10  O   UNL     1      12.283  15.627  44.951  0.00  0.00    +0.000 OA
ATOM     11  H   UNL     1      11.351  15.620  45.238  0.00  0.00    +0.000 HD
ENDBRANCH   4  10
TORSDOF 2
ENDMDL
MODEL 15
REMARK VINA RESULT:    -3.805      2.062      2.417
REMARK INTER + INTRA:          -4.169
REMARK INTER:                  -4.131
REMARK INTRA:                  -0.039
REMARK UNBOUND:                -0.030
REMARK  Name = opt20.pdb
REMARK  2 active torsions:
REMARK  status: ('A' for Active; 'I' for Inactive)
REMARK    1  A    between atoms: C_2  and  C_4
REMARK    2  A    between atoms: C_7  and  O_9
REMARK                            x       y       z     vdW  Elec       q    Type
REMARK                         _______ _______ _______ _____ _____    ______ ____
ROOT
ATOM      1  C   UNL     1      13.042  13.377  43.864  0.00  0.00    +0.000 A 
ATOM      2  C   UNL     1      13.969  13.301  42.820  0.00  0.00    +0.000 A 
ATOM      3  C   UNL     1      13.510  13.486  45.178  0.00  0.00    +0.000 A 
ATOM      4  C   UNL     1      15.338  13.333  43.083  0.00  0.00    +0.000 A 
ATOM      5  C   UNL     1      14.878  13.517  45.442  0.00  0.00    +0.000 A 
ATOM      6  C   UNL     1      15.794  13.440  44.395  0.00  0.00    +0.000 A 
ENDROOT
BRANCH   1   8
ATOM      7  O   UNL     1      10.799  13.389  44.518  0.00  0.00    +0.000 OA
ATOM      8  C   UNL     1      11.567  13.344  43.578  0.00  0.00    +0.000 C 
ATOM      9  O   UNL     1      11.207  13.275  42.420  0.00  0.00    +0.000 OA
ENDBRANCH   1   8
BRANCH   4  10
ATOM     10  O   UNL     1      16.236  13.264  42.057  0.00  0.00    +0.000 OA
ATOM     11  H   UNL     1      16.191  12.369  41.674  0.00  0.00    +0.000 HD
ENDBRANCH   4  10
TORSDOF 2
ENDMDL
MODEL 16
REMARK VINA RESULT:    -3.783      3.066      4.177
REMARK INTER + INTRA:          -4.145
REMARK INTER:                  -4.112
REMARK INTRA:                  -0.033
REMARK UNBOUND:                -0.030
REMARK  Name = opt20.pdb
REMARK  2 active torsions:
REMARK  status: ('A' for Active; 'I' for Inactive)
REMARK    1  A    between atoms: C_2  and  C_4
REMARK    2  A    between atoms: C_7  and  O_9
REMARK                            x       y       z     vdW  Elec       q    Type
REMARK                         _______ _______ _______ _____ _____    ______ ____
ROOT
ATOM      1  C   UNL     1      14.540  13.606  44.654  0.00  0.00    +0.000 A 
ATOM      2  C   UNL     1      14.548  14.756  43.858  0.00  0.00    +0.000 A 
ATOM      3  C   UNL     1      15.604  13.386  45.536  0.00  0.00    +0.000 A 
ATOM      4  C   UNL     1      15.597  15.671  43.942  0.00  0.00    +0.000 A 
ATOM      5  C   UNL     1      16.655  14.299  45.619  0.00  0.00    +0.000 A 
ATOM      6  C   UNL     1      16.652  15.442  44.823  0.00  0.00    +0.000 A 
ENDROOT
BRANCH   1   8
ATOM      7  O   UNL     1      12.273  13.059  44.515  0.00  0.00    +0.000 OA
ATOM      8  C   UNL     1      13.407  12.624  44.562  0.00  0.00    +0.000 C 
ATOM      9  O   UNL     1      13.672  11.439  44.538  0.00  0.00    +0.000 OA
ENDBRANCH   1   8
BRANCH   4  10
ATOM     10  O   UNL     1      15.593  16.794  43.167  0.00  0.00    +0.000 OA
ATOM     11  H   UNL     1      15.667  17.569  43.754  0.00  0.00    +0.000 HD
ENDBRANCH   4  10
TORSDOF 2
ENDMDL
MODEL 17
REMARK VINA RESULT:    -3.734      3.237      5.285
REMARK INTER + INTRA:          -4.092
REMARK INTER:                  -4.065
REMARK INTRA:                  -0.027
REMARK UNBOUND:                -0.030
REMARK  Name = opt20.pdb
REMARK  2 active torsions:
REMARK  status: ('A' for Active; 'I' for Inactive)
REMARK    1  A    between atoms: C_2  and  C_4
REMARK    2  A    between atoms: C_7  and  O_9
REMARK                            x       y       z     vdW  Elec       q    Type
REMARK                         _______ _______ _______ _____ _____    ______ ____
ROOT
ATOM      1  C   UNL     1      15.484  13.993  44.622  0.00  0.00    +0.000 A 
ATOM      2  C   UNL     1      14.662  15.123  44.587  0.00  0.00    +0.000 A 
ATOM      3  C   UNL     1      14.893  12.727  44.682  0.00  0.00    +0.000 A 
ATOM      4  C   UNL     1      13.273  14.991  44.609  0.00  0.00    +0.000 A 
ATOM      5  C   UNL     1      13.506  12.593  44.707  0.00  0.00    +0.000 A 
ATOM      6  C   UNL     1      12.695  13.725  44.671  0.00  0.00    +0.000 A 
ENDROOT
BRANCH   1   8
ATOM      7  O   UNL     1      17.577  14.119  45.654  0.00  0.00    +0.000 OA
ATOM      8  C   UNL     1      16.980  14.139  44.596  0.00  0.00    +0.000 C 
ATOM      9  O   UNL     1      17.527  14.270  43.519  0.00  0.00    +0.000 OA
ENDBRANCH   1   8
BRANCH   4  10
ATOM     10  O   UNL     1      12.477  16.099  44.568  0.00  0.00    +0.000 OA
ATOM     11  H   UNL     1      12.443  16.414  43.645  0.00  0.00    +0.000 HD
ENDBRANCH   4  10
TORSDOF 2
ENDMDL
MODEL 18
REMARK VINA RESULT:    -3.697      2.946      3.786
REMARK INTER + INTRA:          -4.051
REMARK INTER:                  -4.012
REMARK INTRA:                  -0.039
REMARK UNBOUND:                -0.030
REMARK  Name = opt20.pdb
REMARK  2 active torsions:
REMARK  status: ('A' for Active; 'I' for Inactive)
REMARK    1  A    between atoms: C_2  and  C_4
REMARK    2  A    between atoms: C_7  and  O_9
REMARK                            x       y       z     vdW  Elec       q    Type
REMARK                         _______ _______ _______ _____ _____    ______ ____
ROOT
ATOM      1  C   UNL     1      12.743  14.810  44.623  0.00  0.00    +0.000 A 
ATOM      2  C   UNL     1      14.134  14.945  44.630  0.00  0.00    +0.000 A 
ATOM      3  C   UNL     1      11.950  15.957  44.740  0.00  0.00    +0.000 A 
ATOM      4  C   UNL     1      14.724  16.203  44.751  0.00  0.00    +0.000 A 
ATOM      5  C   UNL     1      12.538  17.214  44.863  0.00  0.00    +0.000 A 
ATOM      6  C   UNL     1      13.926  17.339  44.868  0.00  0.00    +0.000 A 
ENDROOT
BRANCH   1   8
ATOM      7  O   UNL     1      12.839  12.480  44.468  0.00  0.00    +0.000 OA
ATOM      8  C   UNL     1      12.110  13.453  44.491  0.00  0.00    +0.000 C 
ATOM      9  O   UNL     1      10.900  13.386  44.414  0.00  0.00    +0.000 OA
ENDBRANCH   1   8
BRANCH   4  10
ATOM     10  O   UNL     1      16.084  16.327  44.750  0.00  0.00    +0.000 OA
ATOM     11  H   UNL     1      16.315  17.130  45.254  0.00  0.00    +0.000 HD
ENDBRANCH   4  10
TORSDOF 2
ENDMDL
MODEL 19
REMARK VINA RESULT:    -3.629      1.889      4.280
REMARK INTER + INTRA:          -3.978
REMARK INTER:                  -3.939
REMARK INTRA:                  -0.039
REMARK UNBOUND:                -0.030
REMARK  Name = opt20.pdb
REMARK  2 active torsions:
REMARK  status: ('A' for Active; 'I' for Inactive)
REMARK    1  A    between atoms: C_2  and  C_4
REMARK    2  A    between atoms: C_7  and  O_9
REMARK                            x       y       z     vdW  Elec       q    Type
REMARK                         _______ _______ _______ _____ _____    ______ ____
ROOT
ATOM      1  C   UNL     1      13.247  13.017  43.777  0.00  0.00    +0.000 A 
ATOM      2  C   UNL     1      12.108  13.435  44.472  0.00  0.00    +0.000 A 
ATOM      3  C   UNL     1      13.108  12.563  42.461  0.00  0.00    +0.000 A 
ATOM      4  C   UNL     1      10.853  13.404  43.863  0.00  0.00    +0.000 A 
ATOM      5  C   UNL     1      11.855  12.529  41.852  0.00  0.00    +0.000 A 
ATOM      6  C   UNL     1      10.726  12.949  42.552  0.00  0.00    +0.000 A 
ENDROOT
BRANCH   1   8
ATOM      7  O   UNL     1      15.544  12.591  43.830  0.00  0.00    +0.000 OA
ATOM      8  C   UNL     1      14.597  13.054  44.436  0.00  0.00    +0.000 C 
ATOM      9  O   UNL     1      14.685  13.545  45.543  0.00  0.00    +0.000 OA
ENDBRANCH   1   8
BRANCH   4  10
ATOM     10  O   UNL     1       9.748  13.821  44.546  0.00  0.00    +0.000 OA
ATOM     11  H   UNL     1       9.069  14.080  43.896  0.00  0.00    +0.000 HD
ENDBRANCH   4  10
TORSDOF 2
ENDMDL
