MODEL 1
REMARK VINA RESULT:    -5.260      0.000      0.000
REMARK INTER + INTRA:          -6.505
REMARK INTER:                  -6.336
REMARK INTRA:                  -0.169
REMARK UNBOUND:                -0.169
REMARK  Name = opt63.pdb
REMARK  5 active torsions:
REMARK  status: ('A' for Active; 'I' for Inactive)
REMARK    1  A    between atoms: C_2  and  C_4
REMARK    2  A    between atoms: C_5  and  C_6
REMARK    3  A    between atoms: C_9  and  O_11
REMARK    4  A    between atoms: C_12  and  O_13
REMARK    5  A    between atoms: O_13  and  C_14
REMARK                            x       y       z     vdW  Elec       q    Type
REMARK                         _______ _______ _______ _____ _____    ______ ____
ROOT
ATOM      1  C   UNL     1      12.974  13.262  43.317  0.00  0.00    +0.000 A 
ATOM      2  C   UNL     1      12.783  12.559  42.129  0.00  0.00    +0.000 A 
ATOM      3  C   UNL     1      11.875  13.554  44.122  0.00  0.00    +0.000 A 
ATOM      4  C   UNL     1      11.508  12.159  41.728  0.00  0.00    +0.000 A 
ATOM      5  C   UNL     1      10.599  13.150  43.735  0.00  0.00    +0.000 A 
ATOM      6  C   UNL     1      10.396  12.458  42.540  0.00  0.00    +0.000 A 
ENDROOT
BRANCH   1   8
ATOM      7  C   UNL     1      14.874  13.631  44.945  0.00  0.00    +0.000 C 
ATOM      8  C   UNL     1      14.329  13.688  43.720  0.00  0.00    +0.000 C 
BRANCH   7  10
ATOM      9  O   UNL     1      16.772  14.882  44.618  0.00  0.00    +0.000 OA
ATOM     10  C   UNL     1      16.226  14.077  45.342  0.00  0.00    +0.000 C 
ATOM     11  O   UNL     1      16.710  13.605  46.352  0.00  0.00    +0.000 OA
ENDBRANCH   7  10
ENDBRANCH   1   8
BRANCH   4  12
ATOM     12  O   UNL     1      11.407  11.483  40.542  0.00  0.00    +0.000 OA
ATOM     13  H   UNL     1      11.454  10.528  40.723  0.00  0.00    +0.000 HD
ENDBRANCH   4  12
BRANCH   6  14
ATOM     14  O   UNL     1       9.077  12.119  42.255  0.00  0.00    +0.000 OA
ATOM     15  C   UNL     1       8.038  11.893  43.235  0.00  0.00    +0.000 C 
ENDBRANCH   6  14
TORSDOF 4
ENDMDL
MODEL 2
REMARK VINA RESULT:    -5.216      1.152      1.447
REMARK INTER + INTRA:          -6.453
REMARK INTER:                  -6.272
REMARK INTRA:                  -0.180
REMARK UNBOUND:                -0.169
REMARK  Name = opt63.pdb
REMARK  5 active torsions:
REMARK  status: ('A' for Active; 'I' for Inactive)
REMARK    1  A    between atoms: C_2  and  C_4
REMARK    2  A    between atoms: C_5  and  C_6
REMARK    3  A    between atoms: C_9  and  O_11
REMARK    4  A    between atoms: C_12  and  O_13
REMARK    5  A    between atoms: O_13  and  C_14
REMARK                            x       y       z     vdW  Elec       q    Type
REMARK                         _______ _______ _______ _____ _____    ______ ____
ROOT
ATOM      1  C   UNL     1      12.887  13.344  44.619  0.00  0.00    +0.000 A 
ATOM      2  C   UNL     1      12.549  12.289  43.773  0.00  0.00    +0.000 A 
ATOM      3  C   UNL     1      11.927  14.304  44.931  0.00  0.00    +0.000 A 
ATOM      4  C   UNL     1      11.271  12.190  43.224  0.00  0.00    +0.000 A 
ATOM      5  C   UNL     1      10.644  14.208  44.395  0.00  0.00    +0.000 A 
ATOM      6  C   UNL     1      10.301  13.163  43.536  0.00  0.00    +0.000 A 
ENDROOT
BRANCH   1   8
ATOM      7  C   UNL     1      15.286  14.140  44.700  0.00  0.00    +0.000 C 
ATOM      8  C   UNL     1      14.249  13.439  45.182  0.00  0.00    +0.000 C 
BRANCH   7  10
ATOM      9  O   UNL     1      16.796  13.834  46.403  0.00  0.00    +0.000 OA
ATOM     10  C   UNL     1      16.651  14.215  45.260  0.00  0.00    +0.000 C 
ATOM     11  O   UNL     1      17.535  14.661  44.555  0.00  0.00    +0.000 OA
ENDBRANCH   7  10
ENDBRANCH   1   8
BRANCH   4  12
ATOM     12  O   UNL     1      11.025  11.129  42.395  0.00  0.00    +0.000 OA
ATOM     13  H   UNL     1      10.148  11.247  41.990  0.00  0.00    +0.000 HD
ENDBRANCH   4  12
BRANCH   6  14
ATOM     14  O   UNL     1       8.995  13.181  43.055  0.00  0.00    +0.000 OA
ATOM     15  C   UNL     1       7.877  12.471  43.635  0.00  0.00    +0.000 C 
ENDBRANCH   6  14
TORSDOF 4
ENDMDL
MODEL 3
REMARK VINA RESULT:    -5.210      1.630      6.183
REMARK INTER + INTRA:          -6.445
REMARK INTER:                  -6.287
REMARK INTRA:                  -0.159
REMARK UNBOUND:                -0.169
REMARK  Name = opt63.pdb
REMARK  5 active torsions:
REMARK  status: ('A' for Active; 'I' for Inactive)
REMARK    1  A    between atoms: C_2  and  C_4
REMARK    2  A    between atoms: C_5  and  C_6
REMARK    3  A    between atoms: C_9  and  O_11
REMARK    4  A    between atoms: C_12  and  O_13
REMARK    5  A    between atoms: O_13  and  C_14
REMARK                            x       y       z     vdW  Elec       q    Type
REMARK                         _______ _______ _______ _____ _____    ______ ____
ROOT
ATOM      1  C   UNL     1      12.144  12.717  43.469  0.00  0.00    +0.000 A 
ATOM      2  C   UNL     1      12.942  11.589  43.655  0.00  0.00    +0.000 A 
ATOM      3  C   UNL     1      12.608  13.959  43.895  0.00  0.00    +0.000 A 
ATOM      4  C   UNL     1      14.188  11.685  44.273  0.00  0.00    +0.000 A 
ATOM      5  C   UNL     1      13.856  14.067  44.505  0.00  0.00    +0.000 A 
ATOM      6  C   UNL     1      14.656  12.941  44.707  0.00  0.00    +0.000 A 
ENDROOT
BRANCH   1   8
ATOM      7  C   UNL     1       9.625  12.501  43.423  0.00  0.00    +0.000 C 
ATOM      8  C   UNL     1      10.821  12.594  42.824  0.00  0.00    +0.000 C 
BRANCH   7  10
ATOM      9  O   UNL     1       7.671  11.360  43.028  0.00  0.00    +0.000 OA
ATOM     10  C   UNL     1       8.307  12.361  42.769  0.00  0.00    +0.000 C 
ATOM     11  O   UNL     1       7.948  13.239  42.010  0.00  0.00    +0.000 OA
ENDBRANCH   7  10
ENDBRANCH   1   8
BRANCH   4  12
ATOM     12  O   UNL     1      14.904  10.528  44.425  0.00  0.00    +0.000 OA
ATOM     13  H   UNL     1      14.377   9.788  44.076  0.00  0.00    +0.000 HD
ENDBRANCH   4  12
BRANCH   6  14
ATOM     14  O   UNL     1      15.875  13.173  45.337  0.00  0.00    +0.000 OA
ATOM     15  C   UNL     1      16.718  14.331  45.135  0.00  0.00    +0.000 C 
ENDBRANCH   6  14
TORSDOF 4
ENDMDL
MODEL 4
REMARK VINA RESULT:    -5.137      2.430      3.425
REMARK INTER + INTRA:          -6.357
REMARK INTER:                  -6.183
REMARK INTRA:                  -0.174
REMARK UNBOUND:                -0.169
REMARK  Name = opt63.pdb
REMARK  5 active torsions:
REMARK  status: ('A' for Active; 'I' for Inactive)
REMARK    1  A    between atoms: C_2  and  C_4
REMARK    2  A    between atoms: C_5  and  C_6
REMARK    3  A    between atoms: C_9  and  O_11
REMARK    4  A    between atoms: C_12  and  O_13
REMARK    5  A    between atoms: O_13  and  C_14
REMARK                            x       y       z     vdW  Elec       q    Type
REMARK                         _______ _______ _______ _____ _____    ______ ____
ROOT
ATOM      1  C   UNL     1      15.507  14.203  44.716  0.00  0.00    +0.000 A 
ATOM      2  C   UNL     1      15.131  12.860  44.715  0.00  0.00    +0.000 A 
ATOM      3  C   UNL     1      14.524  15.188  44.661  0.00  0.00    +0.000 A 
ATOM      4  C   UNL     1      13.787  12.492  44.645  0.00  0.00    +0.000 A 
ATOM      5  C   UNL     1      13.178  14.829  44.602  0.00  0.00    +0.000 A 
ATOM      6  C   UNL     1      12.793  13.488  44.586  0.00  0.00    +0.000 A 
ENDROOT
BRANCH   1   8
ATOM      7  C   UNL     1      17.891  14.299  43.878  0.00  0.00    +0.000 C 
ATOM      8  C   UNL     1      16.935  14.575  44.778  0.00  0.00    +0.000 C 
BRANCH   7  10
ATOM      9  O   UNL     1      19.800  15.218  42.991  0.00  0.00    +0.000 OA
ATOM     10  C   UNL     1      19.322  14.660  43.957  0.00  0.00    +0.000 C 
ATOM     11  O   UNL     1      19.931  14.369  44.967  0.00  0.00    +0.000 OA
ENDBRANCH   7  10
ENDBRANCH   1   8
BRANCH   4  12
ATOM     12  O   UNL     1      13.504  11.153  44.639  0.00  0.00    +0.000 OA
ATOM     13  H   UNL     1      13.177  10.898  45.519  0.00  0.00    +0.000 HD
ENDBRANCH   4  12
BRANCH   6  14
ATOM     14  O   UNL     1      11.423  13.255  44.513  0.00  0.00    +0.000 OA
ATOM     15  C   UNL     1      10.652  13.161  43.293  0.00  0.00    +0.000 C 
ENDBRANCH   6  14
TORSDOF 4
ENDMDL
MODEL 5
REMARK VINA RESULT:    -5.001      1.422      6.445
REMARK INTER + INTRA:          -6.194
REMARK INTER:                  -6.034
REMARK INTRA:                  -0.160
REMARK UNBOUND:                -0.169
REMARK  Name = opt63.pdb
REMARK  5 active torsions:
REMARK  status: ('A' for Active; 'I' for Inactive)
REMARK    1  A    between atoms: C_2  and  C_4
REMARK    2  A    between atoms: C_5  and  C_6
REMARK    3  A    between atoms: C_9  and  O_11
REMARK    4  A    between atoms: C_12  and  O_13
REMARK    5  A    between atoms: O_13  and  C_14
REMARK                            x       y       z     vdW  Elec       q    Type
REMARK                         _______ _______ _______ _____ _____    ______ ____
ROOT
ATOM      1  C   UNL     1      13.835  13.850  44.034  0.00  0.00    +0.000 A 
ATOM      2  C   UNL     1      14.706  13.291  44.968  0.00  0.00    +0.000 A 
ATOM      3  C   UNL     1      14.069  15.142  43.568  0.00  0.00    +0.000 A 
ATOM      4  C   UNL     1      15.798  14.012  45.452  0.00  0.00    +0.000 A 
ATOM      5  C   UNL     1      15.163  15.866  44.038  0.00  0.00    +0.000 A 
ATOM      6  C   UNL     1      16.033  15.320  44.983  0.00  0.00    +0.000 A 
ENDROOT
BRANCH   1   8
ATOM      7  C   UNL     1      12.549  12.460  42.358  0.00  0.00    +0.000 C 
ATOM      8  C   UNL     1      12.677  13.077  43.542  0.00  0.00    +0.000 C 
BRANCH   7  10
ATOM      9  O   UNL     1      11.214  11.671  40.665  0.00  0.00    +0.000 OA
ATOM     10  C   UNL     1      11.379  11.703  41.866  0.00  0.00    +0.000 C 
ATOM     11  O   UNL     1      10.653  11.175  42.685  0.00  0.00    +0.000 OA
ENDBRANCH   7  10
ENDBRANCH   1   8
BRANCH   4  12
ATOM     12  O   UNL     1      16.598  13.394  46.374  0.00  0.00    +0.000 OA
ATOM     13  H   UNL     1      16.741  12.473  46.097  0.00  0.00    +0.000 HD
ENDBRANCH   4  12
BRANCH   6  14
ATOM     14  O   UNL     1      17.081  16.143  45.385  0.00  0.00    +0.000 OA
ATOM     15  C   UNL     1      17.942  16.898  44.501  0.00  0.00    +0.000 C 
ENDBRANCH   6  14
TORSDOF 4
ENDMDL
MODEL 6
REMARK VINA RESULT:    -4.985      2.225      3.220
REMARK INTER + INTRA:          -6.174
REMARK INTER:                  -5.996
REMARK INTRA:                  -0.178
REMARK UNBOUND:                -0.169
REMARK  Name = opt63.pdb
REMARK  5 active torsions:
REMARK  status: ('A' for Active; 'I' for Inactive)
REMARK    1  A    between atoms: C_2  and  C_4
REMARK    2  A    between atoms: C_5  and  C_6
REMARK    3  A    between atoms: C_9  and  O_11
REMARK    4  A    between atoms: C_12  and  O_13
REMARK    5  A    between atoms: O_13  and  C_14
REMARK                            x       y       z     vdW  Elec       q    Type
REMARK                         _______ _______ _______ _____ _____    ______ ____
ROOT
ATOM      1  C   UNL     1      15.303  14.101  44.418  0.00  0.00    +0.000 A 
ATOM      2  C   UNL     1      15.187  12.730  44.644  0.00  0.00    +0.000 A 
ATOM      3  C   UNL     1      14.185  14.823  44.005  0.00  0.00    +0.000 A 
ATOM      4  C   UNL     1      13.973  12.071  44.448  0.00  0.00    +0.000 A 
ATOM      5  C   UNL     1      12.966  14.175  43.817  0.00  0.00    +0.000 A 
ATOM      6  C   UNL     1      12.843  12.801  44.027  0.00  0.00    +0.000 A 
ENDROOT
BRANCH   1   8
ATOM      7  C   UNL     1      17.826  14.268  44.445  0.00  0.00    +0.000 C 
ATOM      8  C   UNL     1      16.598  14.781  44.618  0.00  0.00    +0.000 C 
BRANCH   7  10
ATOM      9  O   UNL     1      19.107  16.163  44.646  0.00  0.00    +0.000 OA
ATOM     10  C   UNL     1      19.118  14.950  44.665  0.00  0.00    +0.000 C 
ATOM     11  O   UNL     1      20.106  14.264  44.837  0.00  0.00    +0.000 OA
ENDBRANCH   7  10
ENDBRANCH   1   8
BRANCH   4  12
ATOM     12  O   UNL     1      13.947  10.723  44.682  0.00  0.00    +0.000 OA
ATOM     13  H   UNL     1      13.116  10.361  44.329  0.00  0.00    +0.000 HD
ENDBRANCH   4  12
BRANCH   6  14
ATOM     14  O   UNL     1      11.580  12.265  43.795  0.00  0.00    +0.000 OA
ATOM     15  C   UNL     1      11.118  11.721  42.537  0.00  0.00    +0.000 C 
ENDBRANCH   6  14
TORSDOF 4
ENDMDL
MODEL 7
REMARK VINA RESULT:    -4.931      1.643      6.357
REMARK INTER + INTRA:          -6.108
REMARK INTER:                  -5.934
REMARK INTRA:                  -0.174
REMARK UNBOUND:                -0.169
REMARK  Name = opt63.pdb
REMARK  5 active torsions:
REMARK  status: ('A' for Active; 'I' for Inactive)
REMARK    1  A    between atoms: C_2  and  C_4
REMARK    2  A    between atoms: C_5  and  C_6
REMARK    3  A    between atoms: C_9  and  O_11
REMARK    4  A    between atoms: C_12  and  O_13
REMARK    5  A    between atoms: O_13  and  C_14
REMARK                            x       y       z     vdW  Elec       q    Type
REMARK                         _______ _______ _______ _____ _____    ______ ____
ROOT
ATOM      1  C   UNL     1      13.543  13.769  44.327  0.00  0.00    +0.000 A 
ATOM      2  C   UNL     1      14.459  13.517  45.346  0.00  0.00    +0.000 A 
ATOM      3  C   UNL     1      14.000  14.239  43.098  0.00  0.00    +0.000 A 
ATOM      4  C   UNL     1      15.823  13.741  45.158  0.00  0.00    +0.000 A 
ATOM      5  C   UNL     1      15.362  14.456  42.896  0.00  0.00    +0.000 A 
ATOM      6  C   UNL     1      16.285  14.219  43.915  0.00  0.00    +0.000 A 
ENDROOT
BRANCH   1   8
ATOM      7  C   UNL     1      11.133  13.466  43.623  0.00  0.00    +0.000 C 
ATOM      8  C   UNL     1      12.101  13.538  44.548  0.00  0.00    +0.000 C 
BRANCH   7  10
ATOM      9  O   UNL     1       9.057  12.755  42.947  0.00  0.00    +0.000 OA
ATOM     10  C   UNL     1       9.689  13.251  43.855  0.00  0.00    +0.000 C 
ATOM     11  O   UNL     1       9.224  13.593  44.925  0.00  0.00    +0.000 OA
ENDBRANCH   7  10
ENDBRANCH   1   8
BRANCH   4  12
ATOM     12  O   UNL     1      16.654  13.477  46.213  0.00  0.00    +0.000 OA
ATOM     13  H   UNL     1      17.576  13.574  45.916  0.00  0.00    +0.000 HD
ENDBRANCH   4  12
BRANCH   6  14
ATOM     14  O   UNL     1      17.614  14.485  43.599  0.00  0.00    +0.000 OA
ATOM     15  C   UNL     1      18.185  14.448  42.271  0.00  0.00    +0.000 C 
ENDBRANCH   6  14
TORSDOF 4
ENDMDL
MODEL 8
REMARK VINA RESULT:    -4.927      1.506      6.757
REMARK INTER + INTRA:          -6.105
REMARK INTER:                  -5.940
REMARK INTRA:                  -0.165
REMARK UNBOUND:                -0.169
REMARK  Name = opt63.pdb
REMARK  5 active torsions:
REMARK  status: ('A' for Active; 'I' for Inactive)
REMARK    1  A    between atoms: C_2  and  C_4
REMARK    2  A    between atoms: C_5  and  C_6
REMARK    3  A    between atoms: C_9  and  O_11
REMARK    4  A    between atoms: C_12  and  O_13
REMARK    5  A    between atoms: O_13  and  C_14
REMARK                            x       y       z     vdW  Elec       q    Type
REMARK                         _______ _______ _______ _____ _____    ______ ____
ROOT
ATOM      1  C   UNL     1      14.543  13.741  43.435  0.00  0.00    +0.000 A 
ATOM      2  C   UNL     1      14.983  13.437  44.722  0.00  0.00    +0.000 A 
ATOM      3  C   UNL     1      15.399  14.407  42.560  0.00  0.00    +0.000 A 
ATOM      4  C   UNL     1      16.259  13.803  45.150  0.00  0.00    +0.000 A 
ATOM      5  C   UNL     1      16.679  14.768  42.976  0.00  0.00    +0.000 A 
ATOM      6  C   UNL     1      17.123  14.480  44.267  0.00  0.00    +0.000 A 
ENDROOT
BRANCH   1   8
ATOM      7  C   UNL     1      12.849  12.469  42.053  0.00  0.00    +0.000 C 
ATOM      8  C   UNL     1      13.185  13.356  43.002  0.00  0.00    +0.000 C 
BRANCH   7  10
ATOM      9  O   UNL     1      10.567  12.480  42.312  0.00  0.00    +0.000 OA
ATOM     10  C   UNL     1      11.486  12.103  41.615  0.00  0.00    +0.000 C 
ATOM     11  O   UNL     1      11.369  11.444  40.601  0.00  0.00    +0.000 OA
ENDBRANCH   7  10
ENDBRANCH   1   8
BRANCH   4  12
ATOM     12  O   UNL     1      16.608  13.476  46.433  0.00  0.00    +0.000 OA
ATOM     13  H   UNL     1      16.014  13.942  47.046  0.00  0.00    +0.000 HD
ENDBRANCH   4  12
BRANCH   6  14
ATOM     14  O   UNL     1      18.414  14.901  44.569  0.00  0.00    +0.000 OA
ATOM     15  C   UNL     1      19.603  14.571  43.815  0.00  0.00    +0.000 C 
ENDBRANCH   6  14
TORSDOF 4
ENDMDL
MODEL 9
REMARK VINA RESULT:    -4.905      1.600      6.558
REMARK INTER + INTRA:          -6.077
REMARK INTER:                  -5.899
REMARK INTRA:                  -0.179
REMARK UNBOUND:                -0.169
REMARK  Name = opt63.pdb
REMARK  5 active torsions:
REMARK  status: ('A' for Active; 'I' for Inactive)
REMARK    1  A    between atoms: C_2  and  C_4
REMARK    2  A    between atoms: C_5  and  C_6
REMARK    3  A    between atoms: C_9  and  O_11
REMARK    4  A    between atoms: C_12  and  O_13
REMARK    5  A    between atoms: O_13  and  C_14
REMARK                            x       y       z     vdW  Elec       q    Type
REMARK                         _______ _______ _______ _____ _____    ______ ____
ROOT
ATOM      1  C   UNL     1      14.666  13.205  43.917  0.00  0.00    +0.000 A 
ATOM      2  C   UNL     1      15.613  13.417  42.917  0.00  0.00    +0.000 A 
ATOM      3  C   UNL     1      15.000  13.473  45.243  0.00  0.00    +0.000 A 
ATOM      4  C   UNL     1      16.892  13.879  43.226  0.00  0.00    +0.000 A 
ATOM      5  C   UNL     1      16.273  13.944  45.560  0.00  0.00    +0.000 A 
ATOM      6  C   UNL     1      17.232  14.146  44.567  0.00  0.00    +0.000 A 
ENDROOT
BRANCH   1   8
ATOM      7  C   UNL     1      12.798  12.537  42.348  0.00  0.00    +0.000 C 
ATOM      8  C   UNL     1      13.320  12.705  43.573  0.00  0.00    +0.000 C 
BRANCH   7  10
ATOM      9  O   UNL     1      10.612  12.096  42.896  0.00  0.00    +0.000 OA
ATOM     10  C   UNL     1      11.443  12.052  42.013  0.00  0.00    +0.000 C 
ATOM     11  O   UNL     1      11.247  11.631  40.890  0.00  0.00    +0.000 OA
ENDBRANCH   7  10
ENDBRANCH   1   8
BRANCH   4  12
ATOM     12  O   UNL     1      17.766  14.050  42.186  0.00  0.00    +0.000 OA
ATOM     13  H   UNL     1      18.308  14.839  42.361  0.00  0.00    +0.000 HD
ENDBRANCH   4  12
BRANCH   6  14
ATOM     14  O   UNL     1      18.469  14.606  45.008  0.00  0.00    +0.000 OA
ATOM     15  C   UNL     1      18.924  15.978  44.951  0.00  0.00    +0.000 C 
ENDBRANCH   6  14
TORSDOF 4
ENDMDL
MODEL 10
REMARK VINA RESULT:    -4.699      1.701      6.153
REMARK INTER + INTRA:          -5.829
REMARK INTER:                  -5.672
REMARK INTRA:                  -0.157
REMARK UNBOUND:                -0.169
REMARK  Name = opt63.pdb
REMARK  5 active torsions:
REMARK  status: ('A' for Active; 'I' for Inactive)
REMARK    1  A    between atoms: C_2  and  C_4
REMARK    2  A    between atoms: C_5  and  C_6
REMARK    3  A    between atoms: C_9  and  O_11
REMARK    4  A    between atoms: C_12  and  O_13
REMARK    5  A    between atoms: O_13  and  C_14
REMARK                            x       y       z     vdW  Elec       q    Type
REMARK                         _______ _______ _______ _____ _____    ______ ____
ROOT
ATOM      1  C   UNL     1      11.715  13.331  43.973  0.00  0.00    +0.000 A 
ATOM      2  C   UNL     1      12.474  12.189  43.723  0.00  0.00    +0.000 A 
ATOM      3  C   UNL     1      12.298  14.408  44.637  0.00  0.00    +0.000 A 
ATOM      4  C   UNL     1      13.802  12.104  44.141  0.00  0.00    +0.000 A 
ATOM      5  C   UNL     1      13.627  14.336  45.050  0.00  0.00    +0.000 A 
ATOM      6  C   UNL     1      14.391  13.192  44.816  0.00  0.00    +0.000 A 
ENDROOT
BRANCH   1   8
ATOM      7  C   UNL     1       9.410  12.402  43.506  0.00  0.00    +0.000 C 
ATOM      8  C   UNL     1      10.307  13.399  43.534  0.00  0.00    +0.000 C 
BRANCH   7  10
ATOM      9  O   UNL     1       7.341  13.398  43.466  0.00  0.00    +0.000 OA
ATOM     10  C   UNL     1       8.007  12.474  43.048  0.00  0.00    +0.000 C 
ATOM     11  O   UNL     1       7.604  11.607  42.299  0.00  0.00    +0.000 OA
ENDBRANCH   7  10
ENDBRANCH   1   8
BRANCH   4  12
ATOM     12  O   UNL     1      14.474  10.944  43.865  0.00  0.00    +0.000 OA
ATOM     13  H   UNL     1      14.448  10.790  42.904  0.00  0.00    +0.000 HD
ENDBRANCH   4  12
BRANCH   6  14
ATOM     14  O   UNL     1      15.701  13.234  45.285  0.00  0.00    +0.000 OA
ATOM     15  C   UNL     1      16.532  14.416  45.348  0.00  0.00    +0.000 C 
ENDBRANCH   6  14
TORSDOF 4
ENDMDL
MODEL 11
REMARK VINA RESULT:    -4.697      2.276      3.350
REMARK INTER + INTRA:          -5.827
REMARK INTER:                  -5.643
REMARK INTRA:                  -0.184
REMARK UNBOUND:                -0.169
REMARK  Name = opt63.pdb
REMARK  5 active torsions:
REMARK  status: ('A' for Active; 'I' for Inactive)
REMARK    1  A    between atoms: C_2  and  C_4
REMARK    2  A    between atoms: C_5  and  C_6
REMARK    3  A    between atoms: C_9  and  O_11
REMARK    4  A    between atoms: C_12  and  O_13
REMARK    5  A    between atoms: O_13  and  C_14
REMARK                            x       y       z     vdW  Elec       q    Type
REMARK                         _______ _______ _______ _____ _____    ______ ____
ROOT
ATOM      1  C   UNL     1      15.314  14.102  44.506  0.00  0.00    +0.000 A 
ATOM      2  C   UNL     1      15.331  12.713  44.623  0.00  0.00    +0.000 A 
ATOM      3  C   UNL     1      14.122  14.745  44.178  0.00  0.00    +0.000 A 
ATOM      4  C   UNL     1      14.178  11.959  44.404  0.00  0.00    +0.000 A 
ATOM      5  C   UNL     1      12.963  14.001  43.967  0.00  0.00    +0.000 A 
ATOM      6  C   UNL     1      12.974  12.610  44.069  0.00  0.00    +0.000 A 
ENDROOT
BRANCH   1   8
ATOM      7  C   UNL     1      16.696  15.974  45.496  0.00  0.00    +0.000 C 
ATOM      8  C   UNL     1      16.547  14.883  44.730  0.00  0.00    +0.000 C 
BRANCH   7  10
ATOM      9  O   UNL     1      17.962  17.485  46.673  0.00  0.00    +0.000 OA
ATOM     10  C   UNL     1      17.930  16.760  45.701  0.00  0.00    +0.000 C 
ATOM     11  O   UNL     1      18.824  16.646  44.885  0.00  0.00    +0.000 OA
ENDBRANCH   7  10
ENDBRANCH   1   8
BRANCH   4  12
ATOM     12  O   UNL     1      14.284  10.601  44.529  0.00  0.00    +0.000 OA
ATOM     13  H   UNL     1      13.879  10.183  43.748  0.00  0.00    +0.000 HD
ENDBRANCH   4  12
BRANCH   6  14
ATOM     14  O   UNL     1      11.759  11.977  43.823  0.00  0.00    +0.000 OA
ATOM     15  C   UNL     1      11.264  11.585  42.522  0.00  0.00    +0.000 C 
ENDBRANCH   6  14
TORSDOF 4
ENDMDL
MODEL 12
REMARK VINA RESULT:    -4.553      2.323      3.423
REMARK INTER + INTRA:          -5.654
REMARK INTER:                  -5.482
REMARK INTRA:                  -0.172
REMARK UNBOUND:                -0.169
REMARK  Name = opt63.pdb
REMARK  5 active torsions:
REMARK  status: ('A' for Active; 'I' for Inactive)
REMARK    1  A    between atoms: C_2  and  C_4
REMARK    2  A    between atoms: C_5  and  C_6
REMARK    3  A    between atoms: C_9  and  O_11
REMARK    4  A    between atoms: C_12  and  O_13
REMARK    5  A    between atoms: O_13  and  C_14
REMARK                            x       y       z     vdW  Elec       q    Type
REMARK                         _______ _______ _______ _____ _____    ______ ____
ROOT
ATOM      1  C   UNL     1      15.085  14.114  44.710  0.00  0.00    +0.000 A 
ATOM      2  C   UNL     1      14.201  15.192  44.681  0.00  0.00    +0.000 A 
ATOM      3  C   UNL     1      14.582  12.816  44.647  0.00  0.00    +0.000 A 
ATOM      4  C   UNL     1      12.823  14.988  44.606  0.00  0.00    +0.000 A 
ATOM      5  C   UNL     1      13.208  12.603  44.562  0.00  0.00    +0.000 A 
ATOM      6  C   UNL     1      12.315  13.675  44.547  0.00  0.00    +0.000 A 
ENDROOT
BRANCH   1   8
ATOM      7  C   UNL     1      17.437  14.321  43.805  0.00  0.00    +0.000 C 
ATOM      8  C   UNL     1      16.540  14.348  44.802  0.00  0.00    +0.000 C 
BRANCH   7  10
ATOM      9  O   UNL     1      19.473  14.868  42.894  0.00  0.00    +0.000 OA
ATOM     10  C   UNL     1      18.895  14.539  43.908  0.00  0.00    +0.000 C 
ATOM     11  O   UNL     1      19.424  14.366  44.988  0.00  0.00    +0.000 OA
ENDBRANCH   7  10
ENDBRANCH   1   8
BRANCH   4  12
ATOM     12  O   UNL     1      12.024  16.099  44.594  0.00  0.00    +0.000 OA
ATOM     13  H   UNL     1      11.108  15.823  44.419  0.00  0.00    +0.000 HD
ENDBRANCH   4  12
BRANCH   6  14
ATOM     14  O   UNL     1      10.967  13.336  44.472  0.00  0.00    +0.000 OA
ATOM     15  C   UNL     1      10.290  12.842  43.294  0.00  0.00    +0.000 C 
ENDBRANCH   6  14
TORSDOF 4
ENDMDL
MODEL 13
REMARK VINA RESULT:    -4.414      1.623      6.378
REMARK INTER + INTRA:          -5.486
REMARK INTER:                  -5.301
REMARK INTRA:                  -0.185
REMARK UNBOUND:                -0.169
REMARK  Name = opt63.pdb
REMARK  5 active torsions:
REMARK  status: ('A' for Active; 'I' for Inactive)
REMARK    1  A    between atoms: C_2  and  C_4
REMARK    2  A    between atoms: C_5  and  C_6
REMARK    3  A    between atoms: C_9  and  O_11
REMARK    4  A    between atoms: C_12  and  O_13
REMARK    5  A    between atoms: O_13  and  C_14
REMARK                            x       y       z     vdW  Elec       q    Type
REMARK                         _______ _______ _______ _____ _____    ______ ____
ROOT
ATOM      1  C   UNL     1      12.711  13.858  44.590  0.00  0.00    +0.000 A 
ATOM      2  C   UNL     1      13.256  15.140  44.625  0.00  0.00    +0.000 A 
ATOM      3  C   UNL     1      13.557  12.753  44.649  0.00  0.00    +0.000 A 
ATOM      4  C   UNL     1      14.636  15.331  44.703  0.00  0.00    +0.000 A 
ATOM      5  C   UNL     1      14.936  12.934  44.737  0.00  0.00    +0.000 A 
ATOM      6  C   UNL     1      15.492  14.214  44.759  0.00  0.00    +0.000 A 
ENDROOT
BRANCH   1   8
ATOM      7  C   UNL     1      10.573  12.940  43.597  0.00  0.00    +0.000 C 
ATOM      8  C   UNL     1      11.249  13.674  44.494  0.00  0.00    +0.000 C 
BRANCH   7  10
ATOM      9  O   UNL     1       8.698  12.037  42.628  0.00  0.00    +0.000 OA
ATOM     10  C   UNL     1       9.108  12.776  43.498  0.00  0.00    +0.000 C 
ATOM     11  O   UNL     1       8.409  13.394  44.276  0.00  0.00    +0.000 OA
ENDBRANCH   7  10
ENDBRANCH   1   8
BRANCH   4  12
ATOM     12  O   UNL     1      15.090  16.622  44.722  0.00  0.00    +0.000 OA
ATOM     13  H   UNL     1      14.489  17.172  44.189  0.00  0.00    +0.000 HD
ENDBRANCH   4  12
BRANCH   6  14
ATOM     14  O   UNL     1      16.881  14.267  44.837  0.00  0.00    +0.000 OA
ATOM     15  C   UNL     1      17.782  14.359  43.709  0.00  0.00    +0.000 C 
ENDBRANCH   6  14
TORSDOF 4
ENDMDL
MODEL 14
REMARK VINA RESULT:    -4.344      2.002      2.973
REMARK INTER + INTRA:          -5.401
REMARK INTER:                  -5.214
REMARK INTRA:                  -0.187
REMARK UNBOUND:                -0.169
REMARK  Name = opt63.pdb
REMARK  5 active torsions:
REMARK  status: ('A' for Active; 'I' for Inactive)
REMARK    1  A    between atoms: C_2  and  C_4
REMARK    2  A    between atoms: C_5  and  C_6
REMARK    3  A    between atoms: C_9  and  O_11
REMARK    4  A    between atoms: C_12  and  O_13
REMARK    5  A    between atoms: O_13  and  C_14
REMARK                            x       y       z     vdW  Elec       q    Type
REMARK                         _______ _______ _______ _____ _____    ______ ____
ROOT
ATOM      1  C   UNL     1      10.628  13.063  43.681  0.00  0.00    +0.000 A 
ATOM      2  C   UNL     1       9.756  12.061  43.258  0.00  0.00    +0.000 A 
ATOM      3  C   UNL     1      10.109  14.256  44.179  0.00  0.00    +0.000 A 
ATOM      4  C   UNL     1       8.374  12.243  43.313  0.00  0.00    +0.000 A 
ATOM      5  C   UNL     1       8.730  14.442  44.247  0.00  0.00    +0.000 A 
ATOM      6  C   UNL     1       7.849  13.451  43.813  0.00  0.00    +0.000 A 
ENDROOT
BRANCH   1   8
ATOM      7  C   UNL     1      12.997  13.078  44.567  0.00  0.00    +0.000 C 
ATOM      8  C   UNL     1      12.089  12.858  43.605  0.00  0.00    +0.000 C 
BRANCH   7  10
ATOM      9  O   UNL     1      15.129  13.352  45.375  0.00  0.00    +0.000 OA
ATOM     10  C   UNL     1      14.460  12.887  44.476  0.00  0.00    +0.000 C 
ATOM     11  O   UNL     1      14.900  12.294  43.512  0.00  0.00    +0.000 OA
ENDBRANCH   7  10
ENDBRANCH   1   8
BRANCH   4  12
ATOM     12  O   UNL     1       7.588  11.214  42.868  0.00  0.00    +0.000 OA
ATOM     13  H   UNL     1       8.148  10.430  42.732  0.00  0.00    +0.000 HD
ENDBRANCH   4  12
BRANCH   6  14
ATOM     14  O   UNL     1       6.496  13.758  43.919  0.00  0.00    +0.000 OA
ATOM     15  C   UNL     1       5.626  13.356  45.003  0.00  0.00    +0.000 C 
ENDBRANCH   6  14
TORSDOF 4
ENDMDL
MODEL 15
REMARK VINA RESULT:    -4.250      2.533      6.030
REMARK INTER + INTRA:          -5.289
REMARK INTER:                  -5.131
REMARK INTRA:                  -0.158
REMARK UNBOUND:                -0.169
REMARK  Name = opt63.pdb
REMARK  5 active torsions:
REMARK  status: ('A' for Active; 'I' for Inactive)
REMARK    1  A    between atoms: C_2  and  C_4
REMARK    2  A    between atoms: C_5  and  C_6
REMARK    3  A    between atoms: C_9  and  O_11
REMARK    4  A    between atoms: C_12  and  O_13
REMARK    5  A    between atoms: O_13  and  C_14
REMARK                            x       y       z     vdW  Elec       q    Type
REMARK                         _______ _______ _______ _____ _____    ______ ____
ROOT
ATOM      1  C   UNL     1       9.892  13.179  43.629  0.00  0.00    +0.000 A 
ATOM      2  C   UNL     1       9.944  12.518  42.403  0.00  0.00    +0.000 A 
ATOM      3  C   UNL     1      11.077  13.599  44.229  0.00  0.00    +0.000 A 
ATOM      4  C   UNL     1      11.163  12.259  41.778  0.00  0.00    +0.000 A 
ATOM      5  C   UNL     1      12.300  13.353  43.608  0.00  0.00    +0.000 A 
ATOM      6  C   UNL     1      12.362  12.680  42.387  0.00  0.00    +0.000 A 
ENDROOT
BRANCH   1   8
ATOM      7  C   UNL     1       7.782  14.489  44.106  0.00  0.00    +0.000 C 
ATOM      8  C   UNL     1       8.592  13.434  44.282  0.00  0.00    +0.000 C 
BRANCH   7  10
ATOM      9  O   UNL     1       5.529  14.932  44.061  0.00  0.00    +0.000 OA
ATOM     10  C   UNL     1       6.490  14.745  44.777  0.00  0.00    +0.000 C 
ATOM     11  O   UNL     1       6.471  14.767  45.992  0.00  0.00    +0.000 OA
ENDBRANCH   7  10
ENDBRANCH   1   8
BRANCH   4  12
ATOM     12  O   UNL     1      11.127  11.595  40.582  0.00  0.00    +0.000 OA
ATOM     13  H   UNL     1      11.700  12.062  39.948  0.00  0.00    +0.000 HD
ENDBRANCH   4  12
BRANCH   6  14
ATOM     14  O   UNL     1      13.640  12.483  41.872  0.00  0.00    +0.000 OA
ATOM     15  C   UNL     1      14.815  13.249  42.224  0.00  0.00    +0.000 C 
ENDBRANCH   6  14
TORSDOF 4
ENDMDL
MODEL 16
REMARK VINA RESULT:    -4.219      1.829      6.328
REMARK INTER + INTRA:          -5.251
REMARK INTER:                  -5.059
REMARK INTRA:                  -0.192
REMARK UNBOUND:                -0.169
REMARK  Name = opt63.pdb
REMARK  5 active torsions:
REMARK  status: ('A' for Active; 'I' for Inactive)
REMARK    1  A    between atoms: C_2  and  C_4
REMARK    2  A    between atoms: C_5  and  C_6
REMARK    3  A    between atoms: C_9  and  O_11
REMARK    4  A    between atoms: C_12  and  O_13
REMARK    5  A    between atoms: O_13  and  C_14
REMARK                            x       y       z     vdW  Elec       q    Type
REMARK                         _______ _______ _______ _____ _____    ______ ____
ROOT
ATOM      1  C   UNL     1      11.797  13.467  44.091  0.00  0.00    +0.000 A 
ATOM      2  C   UNL     1      12.412  14.662  44.461  0.00  0.00    +0.000 A 
ATOM      3  C   UNL     1      12.586  12.373  43.743  0.00  0.00    +0.000 A 
ATOM      4  C   UNL     1      13.801  14.781  44.474  0.00  0.00    +0.000 A 
ATOM      5  C   UNL     1      13.975  12.479  43.761  0.00  0.00    +0.000 A 
ATOM      6  C   UNL     1      14.599  13.676  44.117  0.00  0.00    +0.000 A 
ENDROOT
BRANCH   1   8
ATOM      7  C   UNL     1       9.570  12.581  43.285  0.00  0.00    +0.000 C 
ATOM      8  C   UNL     1      10.324  13.362  44.072  0.00  0.00    +0.000 C 
BRANCH   7  10
ATOM      9  O   UNL     1       7.485  13.435  43.728  0.00  0.00    +0.000 OA
ATOM     10  C   UNL     1       8.095  12.496  43.260  0.00  0.00    +0.000 C 
ATOM     11  O   UNL     1       7.587  11.497  42.791  0.00  0.00    +0.000 OA
ENDBRANCH   7  10
ENDBRANCH   1   8
BRANCH   4  12
ATOM     12  O   UNL     1      14.324  15.992  44.839  0.00  0.00    +0.000 OA
ATOM     13  H   UNL     1      14.211  16.616  44.100  0.00  0.00    +0.000 HD
ENDBRANCH   4  12
BRANCH   6  14
ATOM     14  O   UNL     1      15.990  13.663  44.087  0.00  0.00    +0.000 OA
ATOM     15  C   UNL     1      16.809  14.087  42.972  0.00  0.00    +0.000 C 
ENDBRANCH   6  14
TORSDOF 4
ENDMDL
MODEL 17
REMARK VINA RESULT:    -4.054      2.180      6.765
REMARK INTER + INTRA:          -5.053
REMARK INTER:                  -4.880
REMARK INTRA:                  -0.172
REMARK UNBOUND:                -0.169
REMARK  Name = opt63.pdb
REMARK  5 active torsions:
REMARK  status: ('A' for Active; 'I' for Inactive)
REMARK    1  A    between atoms: C_2  and  C_4
REMARK    2  A    between atoms: C_5  and  C_6
REMARK    3  A    between atoms: C_9  and  O_11
REMARK    4  A    between atoms: C_12  and  O_13
REMARK    5  A    between atoms: O_13  and  C_14
REMARK                            x       y       z     vdW  Elec       q    Type
REMARK                         _______ _______ _______ _____ _____    ______ ____
ROOT
ATOM      1  C   UNL     1      15.335  13.789  44.367  0.00  0.00    +0.000 A 
ATOM      2  C   UNL     1      15.957  14.018  43.140  0.00  0.00    +0.000 A 
ATOM      3  C   UNL     1      16.028  14.057  45.545  0.00  0.00    +0.000 A 
ATOM      4  C   UNL     1      17.265  14.498  43.077  0.00  0.00    +0.000 A 
ATOM      5  C   UNL     1      17.332  14.546  45.492  0.00  0.00    +0.000 A 
ATOM      6  C   UNL     1      17.967  14.765  44.270  0.00  0.00    +0.000 A 
ENDROOT
BRANCH   1   8
ATOM      7  C   UNL     1      13.080  13.173  43.401  0.00  0.00    +0.000 C 
ATOM      8  C   UNL     1      13.953  13.269  44.415  0.00  0.00    +0.000 C 
BRANCH   7  10
ATOM      9  O   UNL     1      10.812  13.499  43.546  0.00  0.00    +0.000 OA
ATOM     10  C   UNL     1      11.692  12.669  43.461  0.00  0.00    +0.000 C 
ATOM     11  O   UNL     1      11.519  11.466  43.434  0.00  0.00    +0.000 OA
ENDBRANCH   7  10
ENDBRANCH   1   8
BRANCH   4  12
ATOM     12  O   UNL     1      17.805  14.685  41.834  0.00  0.00    +0.000 OA
ATOM     13  H   UNL     1      17.780  15.635  41.623  0.00  0.00    +0.000 HD
ENDBRANCH   4  12
BRANCH   6  14
ATOM     14  O   UNL     1      19.272  15.243  44.345  0.00  0.00    +0.000 OA
ATOM     15  C   UNL     1      20.448  14.436  44.585  0.00  0.00    +0.000 C 
ENDBRANCH   6  14
TORSDOF 4
ENDMDL
MODEL 18
REMARK VINA RESULT:    -4.029      3.335      7.671
REMARK INTER + INTRA:          -5.022
REMARK INTER:                  -4.863
REMARK INTRA:                  -0.159
REMARK UNBOUND:                -0.169
REMARK  Name = opt63.pdb
REMARK  5 active torsions:
REMARK  status: ('A' for Active; 'I' for Inactive)
REMARK    1  A    between atoms: C_2  and  C_4
REMARK    2  A    between atoms: C_5  and  C_6
REMARK    3  A    between atoms: C_9  and  O_11
REMARK    4  A    between atoms: C_12  and  O_13
REMARK    5  A    between atoms: O_13  and  C_14
REMARK                            x       y       z     vdW  Elec       q    Type
REMARK                         _______ _______ _______ _____ _____    ______ ____
ROOT
ATOM      1  C   UNL     1      16.772  14.701  45.242  0.00  0.00    +0.000 A 
ATOM      2  C   UNL     1      18.055  14.481  44.742  0.00  0.00    +0.000 A 
ATOM      3  C   UNL     1      16.427  15.967  45.707  0.00  0.00    +0.000 A 
ATOM      4  C   UNL     1      19.000  15.507  44.716  0.00  0.00    +0.000 A 
ATOM      5  C   UNL     1      17.361  17.001  45.676  0.00  0.00    +0.000 A 
ATOM      6  C   UNL     1      18.652  16.787  45.191  0.00  0.00    +0.000 A 
ENDROOT
BRANCH   1   8
ATOM      7  C   UNL     1      14.713  13.442  44.486  0.00  0.00    +0.000 C 
ATOM      8  C   UNL     1      15.788  13.600  45.272  0.00  0.00    +0.000 C 
BRANCH   7  10
ATOM      9  O   UNL     1      12.561  12.664  44.676  0.00  0.00    +0.000 OA
ATOM     10  C   UNL     1      13.723  12.346  44.535  0.00  0.00    +0.000 C 
ATOM     11  O   UNL     1      14.128  11.204  44.445  0.00  0.00    +0.000 OA
ENDBRANCH   7  10
ENDBRANCH   1   8
BRANCH   4  12
ATOM     12  O   UNL     1      20.239  15.205  44.220  0.00  0.00    +0.000 OA
ATOM     13  H   UNL     1      20.590  14.437  44.704  0.00  0.00    +0.000 HD
ENDBRANCH   4  12
BRANCH   6  14
ATOM     14  O   UNL     1      19.499  17.891  45.222  0.00  0.00    +0.000 OA
ATOM     15  C   UNL     1      19.641  18.810  46.331  0.00  0.00    +0.000 C 
ENDBRANCH   6  14
TORSDOF 4
ENDMDL
