MODEL 1
REMARK VINA RESULT:    -5.076      0.000      0.000
REMARK INTER + INTRA:          -6.298
REMARK INTER:                  -6.114
REMARK INTRA:                  -0.184
REMARK UNBOUND:                -0.184
REMARK  Name = opt42.pdb
REMARK  5 active torsions:
REMARK  status: ('A' for Active; 'I' for Inactive)
REMARK    1  A    between atoms: O_1  and  C_2
REMARK    2  A    between atoms: O_1  and  C_3
REMARK    3  A    between atoms: C_4  and  O_6
REMARK    4  A    between atoms: C_8  and  C_10
REMARK    5  A    between atoms: C_10  and  C_11
REMARK                            x       y       z     vdW  Elec       q    Type
REMARK                         _______ _______ _______ _____ _____    ______ ____
ROOT
ATOM      1  C   UNL     1      13.205  12.216  44.027  0.00  0.00    +0.000 A 
ATOM      2  C   UNL     1      14.530  11.907  44.387  0.00  0.00    +0.000 A 
ATOM      3  C   UNL     1      12.816  13.555  43.960  0.00  0.00    +0.000 A 
ATOM      4  C   UNL     1      15.424  12.934  44.686  0.00  0.00    +0.000 A 
ATOM      5  C   UNL     1      13.716  14.583  44.244  0.00  0.00    +0.000 A 
ATOM      6  C   UNL     1      15.022  14.265  44.616  0.00  0.00    +0.000 A 
ENDROOT
BRANCH   1   7
ATOM      7  O   UNL     1      12.222  11.282  43.713  0.00  0.00    +0.000 OA
ATOM      8  C   UNL     1      11.157  11.415  42.742  0.00  0.00    +0.000 C 
ENDBRANCH   1   7
BRANCH   2   9
ATOM      9  O   UNL     1      14.987  10.627  44.437  0.00  0.00    +0.000 OA
ATOM     10  H   UNL     1      14.489  10.169  45.134  0.00  0.00    +0.000 HD
ENDBRANCH   2   9
BRANCH   5  11
ATOM     11  C   UNL     1      13.281  16.035  44.142  0.00  0.00    +0.000 C 
BRANCH  11  12
ATOM     12  C   UNL     1      11.882  16.242  44.669  0.00  0.00    +0.000 C 
ATOM     13  C   UNL     1      10.883  16.777  43.953  0.00  0.00    +0.000 C 
ENDBRANCH  11  12
ENDBRANCH   5  11
TORSDOF 4
ENDMDL
MODEL 2
REMARK VINA RESULT:    -4.901      0.671      0.859
REMARK INTER + INTRA:          -6.087
REMARK INTER:                  -5.887
REMARK INTRA:                  -0.200
REMARK UNBOUND:                -0.184
REMARK  Name = opt42.pdb
REMARK  5 active torsions:
REMARK  status: ('A' for Active; 'I' for Inactive)
REMARK    1  A    between atoms: O_1  and  C_2
REMARK    2  A    between atoms: O_1  and  C_3
REMARK    3  A    between atoms: C_4  and  O_6
REMARK    4  A    between atoms: C_8  and  C_10
REMARK    5  A    between atoms: C_10  and  C_11
REMARK                            x       y       z     vdW  Elec       q    Type
REMARK                         _______ _______ _______ _____ _____    ______ ____
ROOT
ATOM      1  C   UNL     1      13.258  12.379  44.042  0.00  0.00    +0.000 A 
ATOM      2  C   UNL     1      14.553  11.949  44.387  0.00  0.00    +0.000 A 
ATOM      3  C   UNL     1      13.018  13.745  43.885  0.00  0.00    +0.000 A 
ATOM      4  C   UNL     1      15.566  12.887  44.583  0.00  0.00    +0.000 A 
ATOM      5  C   UNL     1      14.036  14.682  44.066  0.00  0.00    +0.000 A 
ATOM      6  C   UNL     1      15.311  14.246  44.424  0.00  0.00    +0.000 A 
ENDROOT
BRANCH   1   7
ATOM      7  O   UNL     1      12.168  11.542  43.827  0.00  0.00    +0.000 OA
ATOM      8  C   UNL     1      11.436  11.347  42.594  0.00  0.00    +0.000 C 
ENDBRANCH   1   7
BRANCH   2   9
ATOM      9  O   UNL     1      14.868  10.632  44.520  0.00  0.00    +0.000 OA
ATOM     10  H   UNL     1      14.846  10.238  43.633  0.00  0.00    +0.000 HD
ENDBRANCH   2   9
BRANCH   5  11
ATOM     11  C   UNL     1      13.760  16.163  43.867  0.00  0.00    +0.000 C 
BRANCH  11  12
ATOM     12  C   UNL     1      12.635  16.650  44.747  0.00  0.00    +0.000 C 
ATOM     13  C   UNL     1      12.766  17.622  45.660  0.00  0.00    +0.000 C 
ENDBRANCH  11  12
ENDBRANCH   5  11
TORSDOF 4
ENDMDL
MODEL 3
REMARK VINA RESULT:    -4.650      1.480      1.703
REMARK INTER + INTRA:          -5.785
REMARK INTER:                  -5.591
REMARK INTRA:                  -0.194
REMARK UNBOUND:                -0.184
REMARK  Name = opt42.pdb
REMARK  5 active torsions:
REMARK  status: ('A' for Active; 'I' for Inactive)
REMARK    1  A    between atoms: O_1  and  C_2
REMARK    2  A    between atoms: O_1  and  C_3
REMARK    3  A    between atoms: C_4  and  O_6
REMARK    4  A    between atoms: C_8  and  C_10
REMARK    5  A    between atoms: C_10  and  C_11
REMARK                            x       y       z     vdW  Elec       q    Type
REMARK                         _______ _______ _______ _____ _____    ______ ____
ROOT
ATOM      1  C   UNL     1      12.686  13.457  44.596  0.00  0.00    +0.000 A 
ATOM      2  C   UNL     1      13.721  12.508  44.677  0.00  0.00    +0.000 A 
ATOM      3  C   UNL     1      13.009  14.815  44.608  0.00  0.00    +0.000 A 
ATOM      4  C   UNL     1      15.045  12.933  44.786  0.00  0.00    +0.000 A 
ATOM      5  C   UNL     1      14.336  15.239  44.701  0.00  0.00    +0.000 A 
ATOM      6  C   UNL     1      15.353  14.290  44.798  0.00  0.00    +0.000 A 
ENDROOT
BRANCH   1   7
ATOM      7  O   UNL     1      11.331  13.157  44.491  0.00  0.00    +0.000 OA
ATOM      8  C   UNL     1      10.531  13.103  43.286  0.00  0.00    +0.000 C 
ENDBRANCH   1   7
BRANCH   2   9
ATOM      9  O   UNL     1      13.482  11.169  44.634  0.00  0.00    +0.000 OA
ATOM     10  H   UNL     1      13.177  10.959  43.736  0.00  0.00    +0.000 HD
ENDBRANCH   2   9
BRANCH   5  11
ATOM     11  C   UNL     1      14.670  16.721  44.688  0.00  0.00    +0.000 C 
BRANCH  11  12
ATOM     12  C   UNL     1      13.429  17.579  44.729  0.00  0.00    +0.000 C 
ATOM     13  C   UNL     1      13.030  18.266  45.808  0.00  0.00    +0.000 C 
ENDBRANCH  11  12
ENDBRANCH   5  11
TORSDOF 4
ENDMDL
MODEL 4
REMARK VINA RESULT:    -4.513      1.516      3.077
REMARK INTER + INTRA:          -5.621
REMARK INTER:                  -5.434
REMARK INTRA:                  -0.187
REMARK UNBOUND:                -0.184
REMARK  Name = opt42.pdb
REMARK  5 active torsions:
REMARK  status: ('A' for Active; 'I' for Inactive)
REMARK    1  A    between atoms: O_1  and  C_2
REMARK    2  A    between atoms: O_1  and  C_3
REMARK    3  A    between atoms: C_4  and  O_6
REMARK    4  A    between atoms: C_8  and  C_10
REMARK    5  A    between atoms: C_10  and  C_11
REMARK                            x       y       z     vdW  Elec       q    Type
REMARK                         _______ _______ _______ _____ _____    ______ ____
ROOT
ATOM      1  C   UNL     1      15.130  13.467  44.426  0.00  0.00    +0.000 A 
ATOM      2  C   UNL     1      14.411  12.264  44.304  0.00  0.00    +0.000 A 
ATOM      3  C   UNL     1      14.426  14.667  44.543  0.00  0.00    +0.000 A 
ATOM      4  C   UNL     1      13.017  12.288  44.282  0.00  0.00    +0.000 A 
ATOM      5  C   UNL     1      13.031  14.689  44.538  0.00  0.00    +0.000 A 
ATOM      6  C   UNL     1      12.328  13.492  44.398  0.00  0.00    +0.000 A 
ENDROOT
BRANCH   1   7
ATOM      7  O   UNL     1      16.517  13.572  44.454  0.00  0.00    +0.000 OA
ATOM      8  C   UNL     1      17.324  14.701  44.042  0.00  0.00    +0.000 C 
ENDBRANCH   1   7
BRANCH   2   9
ATOM      9  O   UNL     1      15.030  11.055  44.223  0.00  0.00    +0.000 OA
ATOM     10  H   UNL     1      15.969  11.223  44.039  0.00  0.00    +0.000 HD
ENDBRANCH   2   9
BRANCH   5  11
ATOM     11  C   UNL     1      12.283  16.003  44.690  0.00  0.00    +0.000 C 
BRANCH  11  12
ATOM     12  C   UNL     1      13.223  17.166  44.893  0.00  0.00    +0.000 C 
ATOM     13  C   UNL     1      13.062  18.102  45.838  0.00  0.00    +0.000 C 
ENDBRANCH  11  12
ENDBRANCH   5  11
TORSDOF 4
ENDMDL
MODEL 5
REMARK VINA RESULT:    -4.506      1.910      2.699
REMARK INTER + INTRA:          -5.612
REMARK INTER:                  -5.361
REMARK INTRA:                  -0.251
REMARK UNBOUND:                -0.184
REMARK  Name = opt42.pdb
REMARK  5 active torsions:
REMARK  status: ('A' for Active; 'I' for Inactive)
REMARK    1  A    between atoms: O_1  and  C_2
REMARK    2  A    between atoms: O_1  and  C_3
REMARK    3  A    between atoms: C_4  and  O_6
REMARK    4  A    between atoms: C_8  and  C_10
REMARK    5  A    between atoms: C_10  and  C_11
REMARK                            x       y       z     vdW  Elec       q    Type
REMARK                         _______ _______ _______ _____ _____    ______ ____
ROOT
ATOM      1  C   UNL     1      12.787  13.556  44.669  0.00  0.00    +0.000 A 
ATOM      2  C   UNL     1      13.741  12.521  44.665  0.00  0.00    +0.000 A 
ATOM      3  C   UNL     1      13.225  14.881  44.673  0.00  0.00    +0.000 A 
ATOM      4  C   UNL     1      15.100  12.832  44.685  0.00  0.00    +0.000 A 
ATOM      5  C   UNL     1      14.585  15.191  44.676  0.00  0.00    +0.000 A 
ATOM      6  C   UNL     1      15.523  14.158  44.691  0.00  0.00    +0.000 A 
ENDROOT
BRANCH   1   7
ATOM      7  O   UNL     1      11.407  13.372  44.656  0.00  0.00    +0.000 OA
ATOM      8  C   UNL     1      10.538  13.296  43.501  0.00  0.00    +0.000 C 
ENDBRANCH   1   7
BRANCH   2   9
ATOM      9  O   UNL     1      13.386  11.208  44.624  0.00  0.00    +0.000 OA
ATOM     10  H   UNL     1      12.514  11.131  45.044  0.00  0.00    +0.000 HD
ENDBRANCH   2   9
BRANCH   5  11
ATOM     11  C   UNL     1      15.043  16.640  44.657  0.00  0.00    +0.000 C 
BRANCH  11  12
ATOM     12  C   UNL     1      16.475  16.784  45.111  0.00  0.00    +0.000 C 
ATOM     13  C   UNL     1      16.839  17.338  46.276  0.00  0.00    +0.000 C 
ENDBRANCH  11  12
ENDBRANCH   5  11
TORSDOF 4
ENDMDL
MODEL 6
REMARK VINA RESULT:    -4.424      2.615      3.452
REMARK INTER + INTRA:          -5.513
REMARK INTER:                  -5.312
REMARK INTRA:                  -0.201
REMARK UNBOUND:                -0.184
REMARK  Name = opt42.pdb
REMARK  5 active torsions:
REMARK  status: ('A' for Active; 'I' for Inactive)
REMARK    1  A    between atoms: O_1  and  C_2
REMARK    2  A    between atoms: O_1  and  C_3
REMARK    3  A    between atoms: C_4  and  O_6
REMARK    4  A    between atoms: C_8  and  C_10
REMARK    5  A    between atoms: C_10  and  C_11
REMARK                            x       y       z     vdW  Elec       q    Type
REMARK                         _______ _______ _______ _____ _____    ______ ____
ROOT
ATOM      1  C   UNL     1      10.191  12.530  41.996  0.00  0.00    +0.000 A 
ATOM      2  C   UNL     1      11.341  12.035  41.353  0.00  0.00    +0.000 A 
ATOM      3  C   UNL     1      10.341  13.317  43.139  0.00  0.00    +0.000 A 
ATOM      4  C   UNL     1      12.603  12.318  41.874  0.00  0.00    +0.000 A 
ATOM      5  C   UNL     1      11.605  13.613  43.650  0.00  0.00    +0.000 A 
ATOM      6  C   UNL     1      12.737  13.102  43.016  0.00  0.00    +0.000 A 
ENDROOT
BRANCH   1   7
ATOM      7  O   UNL     1       8.882  12.311  41.578  0.00  0.00    +0.000 OA
ATOM      8  C   UNL     1       7.666  12.558  42.322  0.00  0.00    +0.000 C 
ENDBRANCH   1   7
BRANCH   2   9
ATOM      9  O   UNL     1      11.271  11.293  40.214  0.00  0.00    +0.000 OA
ATOM     10  H   UNL     1      10.577  10.626  40.346  0.00  0.00    +0.000 HD
ENDBRANCH   2   9
BRANCH   5  11
ATOM     11  C   UNL     1      11.749  14.491  44.883  0.00  0.00    +0.000 C 
BRANCH  11  12
ATOM     12  C   UNL     1      12.695  15.643  44.646  0.00  0.00    +0.000 C 
ATOM     13  C   UNL     1      12.434  16.910  44.996  0.00  0.00    +0.000 C 
ENDBRANCH  11  12
ENDBRANCH   5  11
TORSDOF 4
ENDMDL
MODEL 7
REMARK VINA RESULT:    -4.274      1.577      3.674
REMARK INTER + INTRA:          -5.332
REMARK INTER:                  -5.144
REMARK INTRA:                  -0.188
REMARK UNBOUND:                -0.184
REMARK  Name = opt42.pdb
REMARK  5 active torsions:
REMARK  status: ('A' for Active; 'I' for Inactive)
REMARK    1  A    between atoms: O_1  and  C_2
REMARK    2  A    between atoms: O_1  and  C_3
REMARK    3  A    between atoms: C_4  and  O_6
REMARK    4  A    between atoms: C_8  and  C_10
REMARK    5  A    between atoms: C_10  and  C_11
REMARK                            x       y       z     vdW  Elec       q    Type
REMARK                         _______ _______ _______ _____ _____    ______ ____
ROOT
ATOM      1  C   UNL     1      12.630  13.415  44.489  0.00  0.00    +0.000 A 
ATOM      2  C   UNL     1      11.385  14.071  44.525  0.00  0.00    +0.000 A 
ATOM      3  C   UNL     1      13.798  14.178  44.529  0.00  0.00    +0.000 A 
ATOM      4  C   UNL     1      11.336  15.463  44.580  0.00  0.00    +0.000 A 
ATOM      5  C   UNL     1      13.748  15.571  44.601  0.00  0.00    +0.000 A 
ATOM      6  C   UNL     1      12.508  16.211  44.617  0.00  0.00    +0.000 A 
ENDROOT
BRANCH   1   7
ATOM      7  O   UNL     1      12.808  12.036  44.428  0.00  0.00    +0.000 OA
ATOM      8  C   UNL     1      14.047  11.315  44.232  0.00  0.00    +0.000 C 
ENDBRANCH   1   7
BRANCH   2   9
ATOM      9  O   UNL     1      10.207  13.389  44.526  0.00  0.00    +0.000 OA
ATOM     10  H   UNL     1      10.309  12.638  45.134  0.00  0.00    +0.000 HD
ENDBRANCH   2   9
BRANCH   5  11
ATOM     11  C   UNL     1      15.030  16.384  44.667  0.00  0.00    +0.000 C 
BRANCH  11  12
ATOM     12  C   UNL     1      16.255  15.503  44.676  0.00  0.00    +0.000 C 
ATOM     13  C   UNL     1      17.128  15.444  45.691  0.00  0.00    +0.000 C 
ENDBRANCH  11  12
ENDBRANCH   5  11
TORSDOF 4
ENDMDL
MODEL 8
REMARK VINA RESULT:    -4.265      1.343      3.003
REMARK INTER + INTRA:          -5.322
REMARK INTER:                  -5.110
REMARK INTRA:                  -0.212
REMARK UNBOUND:                -0.184
REMARK  Name = opt42.pdb
REMARK  5 active torsions:
REMARK  status: ('A' for Active; 'I' for Inactive)
REMARK    1  A    between atoms: O_1  and  C_2
REMARK    2  A    between atoms: O_1  and  C_3
REMARK    3  A    between atoms: C_4  and  O_6
REMARK    4  A    between atoms: C_8  and  C_10
REMARK    5  A    between atoms: C_10  and  C_11
REMARK                            x       y       z     vdW  Elec       q    Type
REMARK                         _______ _______ _______ _____ _____    ______ ____
ROOT
ATOM      1  C   UNL     1      15.170  13.566  44.529  0.00  0.00    +0.000 A 
ATOM      2  C   UNL     1      14.381  12.413  44.361  0.00  0.00    +0.000 A 
ATOM      3  C   UNL     1      14.539  14.803  44.671  0.00  0.00    +0.000 A 
ATOM      4  C   UNL     1      12.992  12.523  44.322  0.00  0.00    +0.000 A 
ATOM      5  C   UNL     1      13.148  14.910  44.647  0.00  0.00    +0.000 A 
ATOM      6  C   UNL     1      12.376  13.763  44.463  0.00  0.00    +0.000 A 
ENDROOT
BRANCH   1   7
ATOM      7  O   UNL     1      16.561  13.585  44.578  0.00  0.00    +0.000 OA
ATOM      8  C   UNL     1      17.414  14.688  44.964  0.00  0.00    +0.000 C 
ENDBRANCH   1   7
BRANCH   2   9
ATOM      9  O   UNL     1      14.927  11.171  44.254  0.00  0.00    +0.000 OA
ATOM     10  H   UNL     1      15.066  10.837  45.156  0.00  0.00    +0.000 HD
ENDBRANCH   2   9
BRANCH   5  11
ATOM     11  C   UNL     1      12.479  16.263  44.827  0.00  0.00    +0.000 C 
BRANCH  11  12
ATOM     12  C   UNL     1      11.610  16.622  43.647  0.00  0.00    +0.000 C 
ATOM     13  C   UNL     1      10.280  16.780  43.717  0.00  0.00    +0.000 C 
ENDBRANCH  11  12
ENDBRANCH   5  11
TORSDOF 4
ENDMDL
MODEL 9
REMARK VINA RESULT:    -4.226      1.839      2.468
REMARK INTER + INTRA:          -5.274
REMARK INTER:                  -5.020
REMARK INTRA:                  -0.254
REMARK UNBOUND:                -0.184
REMARK  Name = opt42.pdb
REMARK  5 active torsions:
REMARK  status: ('A' for Active; 'I' for Inactive)
REMARK    1  A    between atoms: O_1  and  C_2
REMARK    2  A    between atoms: O_1  and  C_3
REMARK    3  A    between atoms: C_4  and  O_6
REMARK    4  A    between atoms: C_8  and  C_10
REMARK    5  A    between atoms: C_10  and  C_11
REMARK                            x       y       z     vdW  Elec       q    Type
REMARK                         _______ _______ _______ _____ _____    ______ ____
ROOT
ATOM      1  C   UNL     1      12.802  13.556  44.660  0.00  0.00    +0.000 A 
ATOM      2  C   UNL     1      13.850  12.625  44.784  0.00  0.00    +0.000 A 
ATOM      3  C   UNL     1      13.107  14.917  44.618  0.00  0.00    +0.000 A 
ATOM      4  C   UNL     1      15.167  13.073  44.880  0.00  0.00    +0.000 A 
ATOM      5  C   UNL     1      14.427  15.364  44.699  0.00  0.00    +0.000 A 
ATOM      6  C   UNL     1      15.456  14.433  44.839  0.00  0.00    +0.000 A 
ENDROOT
BRANCH   1   7
ATOM      7  O   UNL     1      11.451  13.234  44.562  0.00  0.00    +0.000 OA
ATOM      8  C   UNL     1      10.685  13.004  43.356  0.00  0.00    +0.000 C 
ENDBRANCH   1   7
BRANCH   2   9
ATOM      9  O   UNL     1      13.629  11.283  44.794  0.00  0.00    +0.000 OA
ATOM     10  H   UNL     1      14.093  10.919  45.565  0.00  0.00    +0.000 HD
ENDBRANCH   2   9
BRANCH   5  11
ATOM     11  C   UNL     1      14.741  16.849  44.628  0.00  0.00    +0.000 C 
BRANCH  11  12
ATOM     12  C   UNL     1      16.147  17.104  44.143  0.00  0.00    +0.000 C 
ATOM     13  C   UNL     1      16.457  17.415  42.876  0.00  0.00    +0.000 C 
ENDBRANCH  11  12
ENDBRANCH   5  11
TORSDOF 4
ENDMDL
MODEL 10
REMARK VINA RESULT:    -4.179      1.822      3.821
REMARK INTER + INTRA:          -5.218
REMARK INTER:                  -4.979
REMARK INTRA:                  -0.239
REMARK UNBOUND:                -0.184
REMARK  Name = opt42.pdb
REMARK  5 active torsions:
REMARK  status: ('A' for Active; 'I' for Inactive)
REMARK    1  A    between atoms: O_1  and  C_2
REMARK    2  A    between atoms: O_1  and  C_3
REMARK    3  A    between atoms: C_4  and  O_6
REMARK    4  A    between atoms: C_8  and  C_10
REMARK    5  A    between atoms: C_10  and  C_11
REMARK                            x       y       z     vdW  Elec       q    Type
REMARK                         _______ _______ _______ _____ _____    ______ ____
ROOT
ATOM      1  C   UNL     1      12.181  13.481  44.135  0.00  0.00    +0.000 A 
ATOM      2  C   UNL     1      11.934  14.853  43.940  0.00  0.00    +0.000 A 
ATOM      3  C   UNL     1      13.412  13.083  44.658  0.00  0.00    +0.000 A 
ATOM      4  C   UNL     1      12.922  15.786  44.251  0.00  0.00    +0.000 A 
ATOM      5  C   UNL     1      14.395  14.019  44.984  0.00  0.00    +0.000 A 
ATOM      6  C   UNL     1      14.146  15.375  44.770  0.00  0.00    +0.000 A 
ENDROOT
BRANCH   1   7
ATOM      7  O   UNL     1      11.280  12.457  43.858  0.00  0.00    +0.000 OA
ATOM      8  C   UNL     1      11.408  11.416  42.862  0.00  0.00    +0.000 C 
ENDBRANCH   1   7
BRANCH   2   9
ATOM      9  O   UNL     1      10.743  15.315  43.470  0.00  0.00    +0.000 OA
ATOM     10  H   UNL     1      10.569  16.164  43.909  0.00  0.00    +0.000 HD
ENDBRANCH   2   9
BRANCH   5  11
ATOM     11  C   UNL     1      15.720  13.568  45.573  0.00  0.00    +0.000 C 
BRANCH  11  12
ATOM     12  C   UNL     1      16.779  14.637  45.462  0.00  0.00    +0.000 C 
ATOM     13  C   UNL     1      17.816  14.578  44.615  0.00  0.00    +0.000 C 
ENDBRANCH  11  12
ENDBRANCH   5  11
TORSDOF 4
ENDMDL
MODEL 11
REMARK VINA RESULT:    -4.127      2.137      3.604
REMARK INTER + INTRA:          -5.155
REMARK INTER:                  -4.911
REMARK INTRA:                  -0.244
REMARK UNBOUND:                -0.184
REMARK  Name = opt42.pdb
REMARK  5 active torsions:
REMARK  status: ('A' for Active; 'I' for Inactive)
REMARK    1  A    between atoms: O_1  and  C_2
REMARK    2  A    between atoms: O_1  and  C_3
REMARK    3  A    between atoms: C_4  and  O_6
REMARK    4  A    between atoms: C_8  and  C_10
REMARK    5  A    between atoms: C_10  and  C_11
REMARK                            x       y       z     vdW  Elec       q    Type
REMARK                         _______ _______ _______ _____ _____    ______ ____
ROOT
ATOM      1  C   UNL     1      11.010  13.402  44.110  0.00  0.00    +0.000 A 
ATOM      2  C   UNL     1      11.330  12.400  43.175  0.00  0.00    +0.000 A 
ATOM      3  C   UNL     1      12.028  14.221  44.599  0.00  0.00    +0.000 A 
ATOM      4  C   UNL     1      12.653  12.229  42.767  0.00  0.00    +0.000 A 
ATOM      5  C   UNL     1      13.349  14.060  44.178  0.00  0.00    +0.000 A 
ATOM      6  C   UNL     1      13.658  13.053  43.265  0.00  0.00    +0.000 A 
ENDROOT
BRANCH   1   7
ATOM      7  O   UNL     1       9.733  13.665  44.597  0.00  0.00    +0.000 OA
ATOM      8  C   UNL     1       8.671  14.394  43.938  0.00  0.00    +0.000 C 
ENDBRANCH   1   7
BRANCH   2   9
ATOM      9  O   UNL     1      10.383  11.589  42.629  0.00  0.00    +0.000 OA
ATOM     10  H   UNL     1       9.710  12.162  42.227  0.00  0.00    +0.000 HD
ENDBRANCH   2   9
BRANCH   5  11
ATOM     11  C   UNL     1      14.440  14.978  44.704  0.00  0.00    +0.000 C 
BRANCH  11  12
ATOM     12  C   UNL     1      15.791  14.305  44.701  0.00  0.00    +0.000 C 
ATOM     13  C   UNL     1      16.446  13.937  45.811  0.00  0.00    +0.000 C 
ENDBRANCH  11  12
ENDBRANCH   5  11
TORSDOF 4
ENDMDL
MODEL 12
REMARK VINA RESULT:    -4.096      2.510      3.606
REMARK INTER + INTRA:          -5.118
REMARK INTER:                  -4.878
REMARK INTRA:                  -0.240
REMARK UNBOUND:                -0.184
REMARK  Name = opt42.pdb
REMARK  5 active torsions:
REMARK  status: ('A' for Active; 'I' for Inactive)
REMARK    1  A    between atoms: O_1  and  C_2
REMARK    2  A    between atoms: O_1  and  C_3
REMARK    3  A    between atoms: C_4  and  O_6
REMARK    4  A    between atoms: C_8  and  C_10
REMARK    5  A    between atoms: C_10  and  C_11
REMARK                            x       y       z     vdW  Elec       q    Type
REMARK                         _______ _______ _______ _____ _____    ______ ____
ROOT
ATOM      1  C   UNL     1      15.297  13.360  43.459  0.00  0.00    +0.000 A 
ATOM      2  C   UNL     1      15.120  13.341  44.855  0.00  0.00    +0.000 A 
ATOM      3  C   UNL     1      14.171  13.396  42.635  0.00  0.00    +0.000 A 
ATOM      4  C   UNL     1      13.833  13.339  45.391  0.00  0.00    +0.000 A 
ATOM      5  C   UNL     1      12.883  13.410  43.173  0.00  0.00    +0.000 A 
ATOM      6  C   UNL     1      12.720  13.373  44.557  0.00  0.00    +0.000 A 
ENDROOT
BRANCH   1   7
ATOM      7  O   UNL     1      16.526  13.358  42.806  0.00  0.00    +0.000 OA
ATOM      8  C   UNL     1      17.418  14.480  42.603  0.00  0.00    +0.000 C 
ENDBRANCH   1   7
BRANCH   2   9
ATOM      9  O   UNL     1      16.173  13.343  45.718  0.00  0.00    +0.000 OA
ATOM     10  H   UNL     1      16.968  13.555  45.203  0.00  0.00    +0.000 HD
ENDBRANCH   2   9
BRANCH   5  11
ATOM     11  C   UNL     1      11.670  13.473  42.260  0.00  0.00    +0.000 C 
BRANCH  11  12
ATOM     12  C   UNL     1      10.378  13.360  43.032  0.00  0.00    +0.000 C 
ATOM     13  C   UNL     1       9.512  12.347  42.897  0.00  0.00    +0.000 C 
ENDBRANCH  11  12
ENDBRANCH   5  11
TORSDOF 4
ENDMDL
MODEL 13
REMARK VINA RESULT:    -4.091      1.430      2.954
REMARK INTER + INTRA:          -5.112
REMARK INTER:                  -4.916
REMARK INTRA:                  -0.196
REMARK UNBOUND:                -0.184
REMARK  Name = opt42.pdb
REMARK  5 active torsions:
REMARK  status: ('A' for Active; 'I' for Inactive)
REMARK    1  A    between atoms: O_1  and  C_2
REMARK    2  A    between atoms: O_1  and  C_3
REMARK    3  A    between atoms: C_4  and  O_6
REMARK    4  A    between atoms: C_8  and  C_10
REMARK    5  A    between atoms: C_10  and  C_11
REMARK                            x       y       z     vdW  Elec       q    Type
REMARK                         _______ _______ _______ _____ _____    ______ ____
ROOT
ATOM      1  C   UNL     1      14.261  13.371  44.903  0.00  0.00    +0.000 A 
ATOM      2  C   UNL     1      13.761  12.164  44.381  0.00  0.00    +0.000 A 
ATOM      3  C   UNL     1      13.559  14.554  44.667  0.00  0.00    +0.000 A 
ATOM      4  C   UNL     1      12.589  12.169  43.625  0.00  0.00    +0.000 A 
ATOM      5  C   UNL     1      12.378  14.556  43.923  0.00  0.00    +0.000 A 
ATOM      6  C   UNL     1      11.900  13.356  43.396  0.00  0.00    +0.000 A 
ENDROOT
BRANCH   1   7
ATOM      7  O   UNL     1      15.420  13.495  45.665  0.00  0.00    +0.000 OA
ATOM      8  C   UNL     1      16.504  14.434  45.475  0.00  0.00    +0.000 C 
ENDBRANCH   1   7
BRANCH   2   9
ATOM      9  O   UNL     1      14.373  10.969  44.603  0.00  0.00    +0.000 OA
ATOM     10  H   UNL     1      15.253  11.015  44.195  0.00  0.00    +0.000 HD
ENDBRANCH   2   9
BRANCH   5  11
ATOM     11  C   UNL     1      11.615  15.850  43.697  0.00  0.00    +0.000 C 
BRANCH  11  12
ATOM     12  C   UNL     1      10.124  15.621  43.636  0.00  0.00    +0.000 C 
ATOM     13  C   UNL     1       9.216  16.606  43.621  0.00  0.00    +0.000 C 
ENDBRANCH  11  12
ENDBRANCH   5  11
TORSDOF 4
ENDMDL
MODEL 14
REMARK VINA RESULT:    -4.031      3.050      4.203
REMARK INTER + INTRA:          -5.039
REMARK INTER:                  -4.777
REMARK INTRA:                  -0.262
REMARK UNBOUND:                -0.184
REMARK  Name = opt42.pdb
REMARK  5 active torsions:
REMARK  status: ('A' for Active; 'I' for Inactive)
REMARK    1  A    between atoms: O_1  and  C_2
REMARK    2  A    between atoms: O_1  and  C_3
REMARK    3  A    between atoms: C_4  and  O_6
REMARK    4  A    between atoms: C_8  and  C_10
REMARK    5  A    between atoms: C_10  and  C_11
REMARK                            x       y       z     vdW  Elec       q    Type
REMARK                         _______ _______ _______ _____ _____    ______ ____
ROOT
ATOM      1  C   UNL     1      16.502  14.458  42.883  0.00  0.00    +0.000 A 
ATOM      2  C   UNL     1      17.313  14.836  43.969  0.00  0.00    +0.000 A 
ATOM      3  C   UNL     1      15.360  13.692  43.124  0.00  0.00    +0.000 A 
ATOM      4  C   UNL     1      16.977  14.429  45.260  0.00  0.00    +0.000 A 
ATOM      5  C   UNL     1      15.016  13.299  44.419  0.00  0.00    +0.000 A 
ATOM      6  C   UNL     1      15.836  13.665  45.486  0.00  0.00    +0.000 A 
ENDROOT
BRANCH   1   7
ATOM      7  O   UNL     1      16.735  14.796  41.553  0.00  0.00    +0.000 OA
ATOM      8  C   UNL     1      17.714  14.221  40.656  0.00  0.00    +0.000 C 
ENDBRANCH   1   7
BRANCH   2   9
ATOM      9  O   UNL     1      18.419  15.612  43.811  0.00  0.00    +0.000 OA
ATOM     10  H   UNL     1      19.125  15.043  43.462  0.00  0.00    +0.000 HD
ENDBRANCH   2   9
BRANCH   5  11
ATOM     11  C   UNL     1      13.757  12.486  44.665  0.00  0.00    +0.000 C 
BRANCH  11  12
ATOM     12  C   UNL     1      12.518  13.214  44.204  0.00  0.00    +0.000 C 
ATOM     13  C   UNL     1      11.956  14.232  44.870  0.00  0.00    +0.000 C 
ENDBRANCH  11  12
ENDBRANCH   5  11
TORSDOF 4
ENDMDL
MODEL 15
REMARK VINA RESULT:    -3.931      2.181      4.285
REMARK INTER + INTRA:          -4.919
REMARK INTER:                  -4.700
REMARK INTRA:                  -0.219
REMARK UNBOUND:                -0.184
REMARK  Name = opt42.pdb
REMARK  5 active torsions:
REMARK  status: ('A' for Active; 'I' for Inactive)
REMARK    1  A    between atoms: O_1  and  C_2
REMARK    2  A    between atoms: O_1  and  C_3
REMARK    3  A    between atoms: C_4  and  O_6
REMARK    4  A    between atoms: C_8  and  C_10
REMARK    5  A    between atoms: C_10  and  C_11
REMARK                            x       y       z     vdW  Elec       q    Type
REMARK                         _______ _______ _______ _____ _____    ______ ____
ROOT
ATOM      1  C   UNL     1      13.167  14.952  44.697  0.00  0.00    +0.000 A 
ATOM      2  C   UNL     1      12.692  13.630  44.624  0.00  0.00    +0.000 A 
ATOM      3  C   UNL     1      14.544  15.175  44.761  0.00  0.00    +0.000 A 
ATOM      4  C   UNL     1      13.595  12.567  44.635  0.00  0.00    +0.000 A 
ATOM      5  C   UNL     1      15.447  14.111  44.756  0.00  0.00    +0.000 A 
ATOM      6  C   UNL     1      14.965  12.804  44.701  0.00  0.00    +0.000 A 
ENDROOT
BRANCH   1   7
ATOM      7  O   UNL     1      12.368  16.092  44.700  0.00  0.00    +0.000 OA
ATOM      8  C   UNL     1      12.722  17.416  45.163  0.00  0.00    +0.000 C 
ENDBRANCH   1   7
BRANCH   2   9
ATOM      9  O   UNL     1      11.367  13.341  44.521  0.00  0.00    +0.000 OA
ATOM     10  H   UNL     1      11.104  12.894  45.343  0.00  0.00    +0.000 HD
ENDBRANCH   2   9
BRANCH   5  11
ATOM     11  C   UNL     1      16.943  14.374  44.803  0.00  0.00    +0.000 C 
BRANCH  11  12
ATOM     12  C   UNL     1      17.479  14.818  43.464  0.00  0.00    +0.000 C 
ATOM     13  C   UNL     1      17.268  14.157  42.317  0.00  0.00    +0.000 C 
ENDBRANCH  11  12
ENDBRANCH   5  11
TORSDOF 4
ENDMDL
MODEL 16
REMARK VINA RESULT:    -3.898      3.361      4.920
REMARK INTER + INTRA:          -4.879
REMARK INTER:                  -4.654
REMARK INTRA:                  -0.225
REMARK UNBOUND:                -0.184
REMARK  Name = opt42.pdb
REMARK  5 active torsions:
REMARK  status: ('A' for Active; 'I' for Inactive)
REMARK    1  A    between atoms: O_1  and  C_2
REMARK    2  A    between atoms: O_1  and  C_3
REMARK    3  A    between atoms: C_4  and  O_6
REMARK    4  A    between atoms: C_8  and  C_10
REMARK    5  A    between atoms: C_10  and  C_11
REMARK                            x       y       z     vdW  Elec       q    Type
REMARK                         _______ _______ _______ _____ _____    ______ ____
ROOT
ATOM      1  C   UNL     1      17.785  14.494  43.637  0.00  0.00    +0.000 A 
ATOM      2  C   UNL     1      17.504  14.160  42.299  0.00  0.00    +0.000 A 
ATOM      3  C   UNL     1      16.807  14.276  44.608  0.00  0.00    +0.000 A 
ATOM      4  C   UNL     1      16.255  13.639  41.962  0.00  0.00    +0.000 A 
ATOM      5  C   UNL     1      15.563  13.739  44.273  0.00  0.00    +0.000 A 
ATOM      6  C   UNL     1      15.289  13.429  42.941  0.00  0.00    +0.000 A 
ENDROOT
BRANCH   1   7
ATOM      7  O   UNL     1      18.987  15.025  44.094  0.00  0.00    +0.000 OA
ATOM      8  C   UNL     1      20.222  14.316  44.353  0.00  0.00    +0.000 C 
ENDBRANCH   1   7
BRANCH   2   9
ATOM      9  O   UNL     1      18.422  14.311  41.306  0.00  0.00    +0.000 OA
ATOM     10  H   UNL     1      19.194  14.759  41.691  0.00  0.00    +0.000 HD
ENDBRANCH   2   9
BRANCH   5  11
ATOM     11  C   UNL     1      14.520  13.488  45.348  0.00  0.00    +0.000 C 
BRANCH  11  12
ATOM     12  C   UNL     1      13.117  13.685  44.828  0.00  0.00    +0.000 C 
ATOM     13  C   UNL     1      12.535  14.883  44.679  0.00  0.00    +0.000 C 
ENDBRANCH  11  12
ENDBRANCH   5  11
TORSDOF 4
ENDMDL
MODEL 17
REMARK VINA RESULT:    -3.749      3.599      5.544
REMARK INTER + INTRA:          -4.700
REMARK INTER:                  -4.479
REMARK INTRA:                  -0.221
REMARK UNBOUND:                -0.184
REMARK  Name = opt42.pdb
REMARK  5 active torsions:
REMARK  status: ('A' for Active; 'I' for Inactive)
REMARK    1  A    between atoms: O_1  and  C_2
REMARK    2  A    between atoms: O_1  and  C_3
REMARK    3  A    between atoms: C_4  and  O_6
REMARK    4  A    between atoms: C_8  and  C_10
REMARK    5  A    between atoms: C_10  and  C_11
REMARK                            x       y       z     vdW  Elec       q    Type
REMARK                         _______ _______ _______ _____ _____    ______ ____
ROOT
ATOM      1  C   UNL     1       7.964  12.492  43.007  0.00  0.00    +0.000 A 
ATOM      2  C   UNL     1       7.423  13.742  43.361  0.00  0.00    +0.000 A 
ATOM      3  C   UNL     1       9.343  12.300  43.101  0.00  0.00    +0.000 A 
ATOM      4  C   UNL     1       8.268  14.769  43.781  0.00  0.00    +0.000 A 
ATOM      5  C   UNL     1      10.186  13.323  43.537  0.00  0.00    +0.000 A 
ATOM      6  C   UNL     1       9.641  14.564  43.869  0.00  0.00    +0.000 A 
ENDROOT
BRANCH   1   7
ATOM      7  O   UNL     1       7.227  11.396  42.569  0.00  0.00    +0.000 OA
ATOM      8  C   UNL     1       6.473  10.461  43.376  0.00  0.00    +0.000 C 
ENDBRANCH   1   7
BRANCH   2   9
ATOM      9  O   UNL     1       6.085  13.989  43.328  0.00  0.00    +0.000 OA
ATOM     10  H   UNL     1       5.968  14.952  43.358  0.00  0.00    +0.000 HD
ENDBRANCH   2   9
BRANCH   5  11
ATOM     11  C   UNL     1      11.682  13.087  43.656  0.00  0.00    +0.000 C 
BRANCH  11  12
ATOM     12  C   UNL     1      12.309  13.967  44.710  0.00  0.00    +0.000 C 
ATOM     13  C   UNL     1      13.572  14.412  44.660  0.00  0.00    +0.000 C 
ENDBRANCH  11  12
ENDBRANCH   5  11
TORSDOF 4
ENDMDL
MODEL 18
REMARK VINA RESULT:    -3.603      2.070      3.598
REMARK INTER + INTRA:          -4.524
REMARK INTER:                  -4.279
REMARK INTRA:                  -0.245
REMARK UNBOUND:                -0.184
REMARK  Name = opt42.pdb
REMARK  5 active torsions:
REMARK  status: ('A' for Active; 'I' for Inactive)
REMARK    1  A    between atoms: O_1  and  C_2
REMARK    2  A    between atoms: O_1  and  C_3
REMARK    3  A    between atoms: C_4  and  O_6
REMARK    4  A    between atoms: C_8  and  C_10
REMARK    5  A    between atoms: C_10  and  C_11
REMARK                            x       y       z     vdW  Elec       q    Type
REMARK                         _______ _______ _______ _____ _____    ______ ____
ROOT
ATOM      1  C   UNL     1      12.521  13.343  42.522  0.00  0.00    +0.000 A 
ATOM      2  C   UNL     1      12.475  12.203  43.346  0.00  0.00    +0.000 A 
ATOM      3  C   UNL     1      13.604  14.217  42.635  0.00  0.00    +0.000 A 
ATOM      4  C   UNL     1      13.494  11.973  44.269  0.00  0.00    +0.000 A 
ATOM      5  C   UNL     1      14.631  13.977  43.549  0.00  0.00    +0.000 A 
ATOM      6  C   UNL     1      14.567  12.853  44.372  0.00  0.00    +0.000 A 
ENDROOT
BRANCH   1   7
ATOM      7  O   UNL     1      11.564  13.683  41.571  0.00  0.00    +0.000 OA
ATOM      8  C   UNL     1      10.525  14.684  41.683  0.00  0.00    +0.000 C 
ENDBRANCH   1   7
BRANCH   2   9
ATOM      9  O   UNL     1      11.469  11.290  43.264  0.00  0.00    +0.000 OA
ATOM     10  H   UNL     1      10.640  11.783  43.149  0.00  0.00    +0.000 HD
ENDBRANCH   2   9
BRANCH   5  11
ATOM     11  C   UNL     1      15.814  14.927  43.641  0.00  0.00    +0.000 C 
BRANCH  11  12
ATOM     12  C   UNL     1      17.113  14.243  43.290  0.00  0.00    +0.000 C 
ATOM     13  C   UNL     1      17.706  14.333  42.091  0.00  0.00    +0.000 C 
ENDBRANCH  11  12
ENDBRANCH   5  11
TORSDOF 4
ENDMDL
MODEL 19
REMARK VINA RESULT:    -3.475      2.416      3.723
REMARK INTER + INTRA:          -4.369
REMARK INTER:                  -4.142
REMARK INTRA:                  -0.227
REMARK UNBOUND:                -0.184
REMARK  Name = opt42.pdb
REMARK  5 active torsions:
REMARK  status: ('A' for Active; 'I' for Inactive)
REMARK    1  A    between atoms: O_1  and  C_2
REMARK    2  A    between atoms: O_1  and  C_3
REMARK    3  A    between atoms: C_4  and  O_6
REMARK    4  A    between atoms: C_8  and  C_10
REMARK    5  A    between atoms: C_10  and  C_11
REMARK                            x       y       z     vdW  Elec       q    Type
REMARK                         _______ _______ _______ _____ _____    ______ ____
ROOT
ATOM      1  C   UNL     1      14.774  14.512  44.116  0.00  0.00    +0.000 A 
ATOM      2  C   UNL     1      15.040  13.525  43.149  0.00  0.00    +0.000 A 
ATOM      3  C   UNL     1      13.475  14.646  44.608  0.00  0.00    +0.000 A 
ATOM      4  C   UNL     1      14.006  12.712  42.685  0.00  0.00    +0.000 A 
ATOM      5  C   UNL     1      12.444  13.821  44.155  0.00  0.00    +0.000 A 
ATOM      6  C   UNL     1      12.715  12.857  43.183  0.00  0.00    +0.000 A 
ENDROOT
BRANCH   1   7
ATOM      7  O   UNL     1      15.717  15.385  44.650  0.00  0.00    +0.000 OA
ATOM      8  C   UNL     1      15.987  16.748  44.244  0.00  0.00    +0.000 C 
ENDBRANCH   1   7
BRANCH   2   9
ATOM      9  O   UNL     1      16.290  13.315  42.653  0.00  0.00    +0.000 OA
ATOM     10  H   UNL     1      16.772  14.156  42.718  0.00  0.00    +0.000 HD
ENDBRANCH   2   9
BRANCH   5  11
ATOM     11  C   UNL     1      11.040  13.965  44.719  0.00  0.00    +0.000 C 
BRANCH  11  12
ATOM     12  C   UNL     1       9.985  13.811  43.651  0.00  0.00    +0.000 C 
ATOM     13  C   UNL     1       8.940  12.978  43.746  0.00  0.00    +0.000 C 
ENDBRANCH  11  12
ENDBRANCH   5  11
TORSDOF 4
ENDMDL
