MODEL 1
REMARK VINA RESULT:    -4.391      0.000      0.000
REMARK INTER + INTRA:          -5.117
REMARK INTER:                  -5.033
REMARK INTRA:                  -0.084
REMARK UNBOUND:                -0.084
REMARK  Name = opt19.pdb
REMARK  4 active torsions:
REMARK  status: ('A' for Active; 'I' for Inactive)
REMARK    1  A    between atoms: C_2  and  O_3
REMARK    2  A    between atoms: C_2  and  C_4
REMARK    3  A    between atoms: O_3  and  C_5
REMARK    4  A    between atoms: C_10  and  O_11
REMARK                            x       y       z     vdW  Elec       q    Type
REMARK                         _______ _______ _______ _____ _____    ______ ____
ROOT
ATOM      1  C   UNL     1      14.879  13.073  44.307  0.00  0.00    +0.000 A 
ATOM      2  C   UNL     1      15.640  13.552  45.377  0.00  0.00    +0.000 A 
ATOM      3  C   UNL     1      15.364  13.237  43.003  0.00  0.00    +0.000 A 
ATOM      4  C   UNL     1      16.862  14.185  45.153  0.00  0.00    +0.000 A 
ATOM      5  C   UNL     1      16.589  13.864  42.779  0.00  0.00    +0.000 A 
ATOM      6  C   UNL     1      17.338  14.340  43.852  0.00  0.00    +0.000 A 
ENDROOT
BRANCH   1   8
ATOM      7  O   UNL     1      13.436  11.184  44.484  0.00  0.00    +0.000 OA
ATOM      8  C   UNL     1      13.565  12.391  44.565  0.00  0.00    +0.000 C 
BRANCH   8   9
ATOM      9  O   UNL     1      12.544  13.213  44.907  0.00  0.00    +0.000 OA
ATOM     10  C   UNL     1      11.484  13.457  43.951  0.00  0.00    +0.000 C 
ENDBRANCH   8   9
ENDBRANCH   1   8
BRANCH   6  11
ATOM     11  O   UNL     1      18.534  14.953  43.623  0.00  0.00    +0.000 OA
ATOM     12  H   UNL     1      18.441  15.614  42.914  0.00  0.00    +0.000 HD
ENDBRANCH   6  11
TORSDOF 3
ENDMDL
MODEL 2
REMARK VINA RESULT:    -4.359      2.600      3.990
REMARK INTER + INTRA:          -5.080
REMARK INTER:                  -4.988
REMARK INTRA:                  -0.093
REMARK UNBOUND:                -0.084
REMARK  Name = opt19.pdb
REMARK  4 active torsions:
REMARK  status: ('A' for Active; 'I' for Inactive)
REMARK    1  A    between atoms: C_2  and  O_3
REMARK    2  A    between atoms: C_2  and  C_4
REMARK    3  A    between atoms: O_3  and  C_5
REMARK    4  A    between atoms: C_10  and  O_11
REMARK                            x       y       z     vdW  Elec       q    Type
REMARK                         _______ _______ _______ _____ _____    ______ ____
ROOT
ATOM      1  C   UNL     1      13.805  14.755  44.642  0.00  0.00    +0.000 A 
ATOM      2  C   UNL     1      15.161  14.433  44.539  0.00  0.00    +0.000 A 
ATOM      3  C   UNL     1      12.861  13.722  44.643  0.00  0.00    +0.000 A 
ATOM      4  C   UNL     1      15.569  13.103  44.438  0.00  0.00    +0.000 A 
ATOM      5  C   UNL     1      13.268  12.392  44.548  0.00  0.00    +0.000 A 
ATOM      6  C   UNL     1      14.622  12.081  44.444  0.00  0.00    +0.000 A 
ENDROOT
BRANCH   1   8
ATOM      7  O   UNL     1      12.238  16.512  45.019  0.00  0.00    +0.000 OA
ATOM      8  C   UNL     1      13.381  16.193  44.753  0.00  0.00    +0.000 C 
BRANCH   8   9
ATOM      9  O   UNL     1      14.364  17.103  44.549  0.00  0.00    +0.000 OA
ATOM     10  C   UNL     1      14.611  18.113  45.557  0.00  0.00    +0.000 C 
ENDBRANCH   8   9
ENDBRANCH   1   8
BRANCH   6  11
ATOM     11  O   UNL     1      15.011  10.778  44.350  0.00  0.00    +0.000 OA
ATOM     12  H   UNL     1      15.525  10.525  45.138  0.00  0.00    +0.000 HD
ENDBRANCH   6  11
TORSDOF 3
ENDMDL
MODEL 3
REMARK VINA RESULT:    -4.341      2.389      3.779
REMARK INTER + INTRA:          -5.060
REMARK INTER:                  -4.969
REMARK INTRA:                  -0.091
REMARK UNBOUND:                -0.084
REMARK  Name = opt19.pdb
REMARK  4 active torsions:
REMARK  status: ('A' for Active; 'I' for Inactive)
REMARK    1  A    between atoms: C_2  and  O_3
REMARK    2  A    between atoms: C_2  and  C_4
REMARK    3  A    between atoms: O_3  and  C_5
REMARK    4  A    between atoms: C_10  and  O_11
REMARK                            x       y       z     vdW  Elec       q    Type
REMARK                         _______ _______ _______ _____ _____    ______ ____
ROOT
ATOM      1  C   UNL     1      13.685  14.667  44.619  0.00  0.00    +0.000 A 
ATOM      2  C   UNL     1      12.776  13.632  44.380  0.00  0.00    +0.000 A 
ATOM      3  C   UNL     1      15.043  14.358  44.758  0.00  0.00    +0.000 A 
ATOM      4  C   UNL     1      13.214  12.312  44.282  0.00  0.00    +0.000 A 
ATOM      5  C   UNL     1      15.482  13.039  44.654  0.00  0.00    +0.000 A 
ATOM      6  C   UNL     1      14.569  12.015  44.418  0.00  0.00    +0.000 A 
ENDROOT
BRANCH   1   8
ATOM      7  O   UNL     1      13.961  17.024  44.843  0.00  0.00    +0.000 OA
ATOM      8  C   UNL     1      13.197  16.086  44.719  0.00  0.00    +0.000 C 
BRANCH   8   9
ATOM      9  O   UNL     1      11.854  16.242  44.647  0.00  0.00    +0.000 OA
ATOM     10  C   UNL     1      11.304  17.214  43.724  0.00  0.00    +0.000 C 
ENDBRANCH   8   9
ENDBRANCH   1   8
BRANCH   6  11
ATOM     11  O   UNL     1      15.007  10.728  44.319  0.00  0.00    +0.000 OA
ATOM     12  H   UNL     1      15.212  10.514  43.391  0.00  0.00    +0.000 HD
ENDBRANCH   6  11
TORSDOF 3
ENDMDL
MODEL 4
REMARK VINA RESULT:    -4.176      1.638      1.827
REMARK INTER + INTRA:          -4.871
REMARK INTER:                  -4.780
REMARK INTRA:                  -0.090
REMARK UNBOUND:                -0.084
REMARK  Name = opt19.pdb
REMARK  4 active torsions:
REMARK  status: ('A' for Active; 'I' for Inactive)
REMARK    1  A    between atoms: C_2  and  O_3
REMARK    2  A    between atoms: C_2  and  C_4
REMARK    3  A    between atoms: O_3  and  C_5
REMARK    4  A    between atoms: C_10  and  O_11
REMARK                            x       y       z     vdW  Elec       q    Type
REMARK                         _______ _______ _______ _____ _____    ______ ____
ROOT
ATOM      1  C   UNL     1      14.728  13.640  44.803  0.00  0.00    +0.000 A 
ATOM      2  C   UNL     1      15.974  13.495  45.420  0.00  0.00    +0.000 A 
ATOM      3  C   UNL     1      14.292  14.922  44.447  0.00  0.00    +0.000 A 
ATOM      4  C   UNL     1      16.772  14.610  45.677  0.00  0.00    +0.000 A 
ATOM      5  C   UNL     1      15.093  16.036  44.698  0.00  0.00    +0.000 A 
ATOM      6  C   UNL     1      16.331  15.881  45.315  0.00  0.00    +0.000 A 
ENDROOT
BRANCH   1   8
ATOM      7  O   UNL     1      14.361  11.319  44.403  0.00  0.00    +0.000 OA
ATOM      8  C   UNL     1      13.880  12.429  44.530  0.00  0.00    +0.000 C 
BRANCH   8   9
ATOM      9  O   UNL     1      12.548  12.661  44.450  0.00  0.00    +0.000 OA
ATOM     10  C   UNL     1      11.842  12.312  43.236  0.00  0.00    +0.000 C 
ENDBRANCH   8   9
ENDBRANCH   1   8
BRANCH   6  11
ATOM     11  O   UNL     1      17.107  16.976  45.558  0.00  0.00    +0.000 OA
ATOM     12  H   UNL     1      17.724  17.120  44.818  0.00  0.00    +0.000 HD
ENDBRANCH   6  11
TORSDOF 3
ENDMDL
MODEL 5
REMARK VINA RESULT:    -4.119      2.651      3.742
REMARK INTER + INTRA:          -4.805
REMARK INTER:                  -4.722
REMARK INTRA:                  -0.083
REMARK UNBOUND:                -0.084
REMARK  Name = opt19.pdb
REMARK  4 active torsions:
REMARK  status: ('A' for Active; 'I' for Inactive)
REMARK    1  A    between atoms: C_2  and  O_3
REMARK    2  A    between atoms: C_2  and  C_4
REMARK    3  A    between atoms: O_3  and  C_5
REMARK    4  A    between atoms: C_10  and  O_11
REMARK                            x       y       z     vdW  Elec       q    Type
REMARK                         _______ _______ _______ _____ _____    ______ ____
ROOT
ATOM      1  C   UNL     1      12.915  13.998  43.740  0.00  0.00    +0.000 A 
ATOM      2  C   UNL     1      14.174  13.990  44.347  0.00  0.00    +0.000 A 
ATOM      3  C   UNL     1      12.313  12.778  43.412  0.00  0.00    +0.000 A 
ATOM      4  C   UNL     1      14.822  12.786  44.622  0.00  0.00    +0.000 A 
ATOM      5  C   UNL     1      12.957  11.574  43.692  0.00  0.00    +0.000 A 
ATOM      6  C   UNL     1      14.212  11.576  44.295  0.00  0.00    +0.000 A 
ENDROOT
BRANCH   1   8
ATOM      7  O   UNL     1      12.763  16.187  42.810  0.00  0.00    +0.000 OA
ATOM      8  C   UNL     1      12.229  15.304  43.453  0.00  0.00    +0.000 C 
BRANCH   8   9
ATOM      9  O   UNL     1      10.974  15.419  43.949  0.00  0.00    +0.000 OA
ATOM     10  C   UNL     1       9.916  15.907  43.089  0.00  0.00    +0.000 C 
ENDBRANCH   8   9
ENDBRANCH   1   8
BRANCH   6  11
ATOM     11  O   UNL     1      14.836  10.394  44.564  0.00  0.00    +0.000 OA
ATOM     12  H   UNL     1      15.422  10.493  45.336  0.00  0.00    +0.000 HD
ENDBRANCH   6  11
TORSDOF 3
ENDMDL
MODEL 6
REMARK VINA RESULT:    -4.029      2.025      5.046
REMARK INTER + INTRA:          -4.702
REMARK INTER:                  -4.621
REMARK INTRA:                  -0.081
REMARK UNBOUND:                -0.084
REMARK  Name = opt19.pdb
REMARK  4 active torsions:
REMARK  status: ('A' for Active; 'I' for Inactive)
REMARK    1  A    between atoms: C_2  and  O_3
REMARK    2  A    between atoms: C_2  and  C_4
REMARK    3  A    between atoms: O_3  and  C_5
REMARK    4  A    between atoms: C_10  and  O_11
REMARK                            x       y       z     vdW  Elec       q    Type
REMARK                         _______ _______ _______ _____ _____    ______ ____
ROOT
ATOM      1  C   UNL     1      13.431  13.197  44.181  0.00  0.00    +0.000 A 
ATOM      2  C   UNL     1      12.790  12.311  43.311  0.00  0.00    +0.000 A 
ATOM      3  C   UNL     1      12.664  14.142  44.873  0.00  0.00    +0.000 A 
ATOM      4  C   UNL     1      11.408  12.366  43.133  0.00  0.00    +0.000 A 
ATOM      5  C   UNL     1      11.282  14.194  44.700  0.00  0.00    +0.000 A 
ATOM      6  C   UNL     1      10.653  13.308  43.830  0.00  0.00    +0.000 A 
ENDROOT
BRANCH   1   8
ATOM      7  O   UNL     1      15.662  12.732  43.482  0.00  0.00    +0.000 OA
ATOM      8  C   UNL     1      14.921  13.123  44.364  0.00  0.00    +0.000 C 
BRANCH   8   9
ATOM      9  O   UNL     1      15.377  13.536  45.570  0.00  0.00    +0.000 OA
ATOM     10  C   UNL     1      16.680  14.163  45.657  0.00  0.00    +0.000 C 
ENDBRANCH   8   9
ENDBRANCH   1   8
BRANCH   6  11
ATOM     11  O   UNL     1       9.300  13.366  43.666  0.00  0.00    +0.000 OA
ATOM     12  H   UNL     1       9.064  13.136  42.749  0.00  0.00    +0.000 HD
ENDBRANCH   6  11
TORSDOF 3
ENDMDL
MODEL 7
REMARK VINA RESULT:    -4.015      1.517      4.589
REMARK INTER + INTRA:          -4.686
REMARK INTER:                  -4.573
REMARK INTRA:                  -0.114
REMARK UNBOUND:                -0.084
REMARK  Name = opt19.pdb
REMARK  4 active torsions:
REMARK  status: ('A' for Active; 'I' for Inactive)
REMARK    1  A    between atoms: C_2  and  O_3
REMARK    2  A    between atoms: C_2  and  C_4
REMARK    3  A    between atoms: O_3  and  C_5
REMARK    4  A    between atoms: C_10  and  O_11
REMARK                            x       y       z     vdW  Elec       q    Type
REMARK                         _______ _______ _______ _____ _____    ______ ____
ROOT
ATOM      1  C   UNL     1      15.361  14.314  44.686  0.00  0.00    +0.000 A 
ATOM      2  C   UNL     1      14.847  13.021  44.827  0.00  0.00    +0.000 A 
ATOM      3  C   UNL     1      14.471  15.389  44.581  0.00  0.00    +0.000 A 
ATOM      4  C   UNL     1      13.470  12.804  44.862  0.00  0.00    +0.000 A 
ATOM      5  C   UNL     1      13.094  15.174  44.622  0.00  0.00    +0.000 A 
ATOM      6  C   UNL     1      12.592  13.882  44.760  0.00  0.00    +0.000 A 
ENDROOT
BRANCH   1   8
ATOM      7  O   UNL     1      17.568  14.212  45.580  0.00  0.00    +0.000 OA
ATOM      8  C   UNL     1      16.848  14.531  44.653  0.00  0.00    +0.000 C 
BRANCH   8   9
ATOM      9  O   UNL     1      17.325  15.094  43.517  0.00  0.00    +0.000 OA
ATOM     10  C   UNL     1      17.450  14.281  42.325  0.00  0.00    +0.000 C 
ENDBRANCH   8   9
ENDBRANCH   1   8
BRANCH   6  11
ATOM     11  O   UNL     1      11.245  13.680  44.798  0.00  0.00    +0.000 OA
ATOM     12  H   UNL     1      11.051  12.739  44.957  0.00  0.00    +0.000 HD
ENDBRANCH   6  11
TORSDOF 3
ENDMDL
MODEL 8
REMARK VINA RESULT:    -4.003      1.502      4.577
REMARK INTER + INTRA:          -4.672
REMARK INTER:                  -4.560
REMARK INTRA:                  -0.113
REMARK UNBOUND:                -0.084
REMARK  Name = opt19.pdb
REMARK  4 active torsions:
REMARK  status: ('A' for Active; 'I' for Inactive)
REMARK    1  A    between atoms: C_2  and  O_3
REMARK    2  A    between atoms: C_2  and  C_4
REMARK    3  A    between atoms: O_3  and  C_5
REMARK    4  A    between atoms: C_10  and  O_11
REMARK                            x       y       z     vdW  Elec       q    Type
REMARK                         _______ _______ _______ _____ _____    ______ ____
ROOT
ATOM      1  C   UNL     1      15.308  14.254  44.683  0.00  0.00    +0.000 A 
ATOM      2  C   UNL     1      14.423  15.334  44.625  0.00  0.00    +0.000 A 
ATOM      3  C   UNL     1      14.790  12.956  44.756  0.00  0.00    +0.000 A 
ATOM      4  C   UNL     1      13.045  15.124  44.639  0.00  0.00    +0.000 A 
ATOM      5  C   UNL     1      13.412  12.745  44.765  0.00  0.00    +0.000 A 
ATOM      6  C   UNL     1      12.538  13.828  44.708  0.00  0.00    +0.000 A 
ENDROOT
BRANCH   1   8
ATOM      7  O   UNL     1      17.509  14.193  45.598  0.00  0.00    +0.000 OA
ATOM      8  C   UNL     1      16.792  14.497  44.664  0.00  0.00    +0.000 C 
BRANCH   8   9
ATOM      9  O   UNL     1      17.270  15.063  43.530  0.00  0.00    +0.000 OA
ATOM     10  C   UNL     1      17.445  14.242  42.350  0.00  0.00    +0.000 C 
ENDBRANCH   8   9
ENDBRANCH   1   8
BRANCH   6  11
ATOM     11  O   UNL     1      11.192  13.612  44.718  0.00  0.00    +0.000 OA
ATOM     12  H   UNL     1      10.730  14.363  44.304  0.00  0.00    +0.000 HD
ENDBRANCH   6  11
TORSDOF 3
ENDMDL
MODEL 9
REMARK VINA RESULT:    -4.000      2.507      3.556
REMARK INTER + INTRA:          -4.668
REMARK INTER:                  -4.562
REMARK INTRA:                  -0.107
REMARK UNBOUND:                -0.084
REMARK  Name = opt19.pdb
REMARK  4 active torsions:
REMARK  status: ('A' for Active; 'I' for Inactive)
REMARK    1  A    between atoms: C_2  and  O_3
REMARK    2  A    between atoms: C_2  and  C_4
REMARK    3  A    between atoms: O_3  and  C_5
REMARK    4  A    between atoms: C_10  and  O_11
REMARK                            x       y       z     vdW  Elec       q    Type
REMARK                         _______ _______ _______ _____ _____    ______ ____
ROOT
ATOM      1  C   UNL     1      12.362  12.443  42.621  0.00  0.00    +0.000 A 
ATOM      2  C   UNL     1      12.991  13.689  42.696  0.00  0.00    +0.000 A 
ATOM      3  C   UNL     1      12.826  11.399  43.430  0.00  0.00    +0.000 A 
ATOM      4  C   UNL     1      14.066  13.891  43.562  0.00  0.00    +0.000 A 
ATOM      5  C   UNL     1      13.896  11.602  44.301  0.00  0.00    +0.000 A 
ATOM      6  C   UNL     1      14.518  12.846  44.366  0.00  0.00    +0.000 A 
ENDROOT
BRANCH   1   8
ATOM      7  O   UNL     1      11.281  11.527  40.705  0.00  0.00    +0.000 OA
ATOM      8  C   UNL     1      11.203  12.243  41.684  0.00  0.00    +0.000 C 
BRANCH   8   9
ATOM      9  O   UNL     1      10.069  12.904  42.018  0.00  0.00    +0.000 OA
ATOM     10  C   UNL     1       9.209  12.356  43.046  0.00  0.00    +0.000 C 
ENDBRANCH   8   9
ENDBRANCH   1   8
BRANCH   6  11
ATOM     11  O   UNL     1      15.564  13.035  45.219  0.00  0.00    +0.000 OA
ATOM     12  H   UNL     1      15.493  12.426  45.977  0.00  0.00    +0.000 HD
ENDBRANCH   6  11
TORSDOF 3
ENDMDL
MODEL 10
REMARK VINA RESULT:    -3.997      2.769      4.364
REMARK INTER + INTRA:          -4.666
REMARK INTER:                  -4.574
REMARK INTRA:                  -0.091
REMARK UNBOUND:                -0.084
REMARK  Name = opt19.pdb
REMARK  4 active torsions:
REMARK  status: ('A' for Active; 'I' for Inactive)
REMARK    1  A    between atoms: C_2  and  O_3
REMARK    2  A    between atoms: C_2  and  C_4
REMARK    3  A    between atoms: O_3  and  C_5
REMARK    4  A    between atoms: C_10  and  O_11
REMARK                            x       y       z     vdW  Elec       q    Type
REMARK                         _______ _______ _______ _____ _____    ______ ____
ROOT
ATOM      1  C   UNL     1      14.309  15.156  44.673  0.00  0.00    +0.000 A 
ATOM      2  C   UNL     1      12.987  14.711  44.595  0.00  0.00    +0.000 A 
ATOM      3  C   UNL     1      15.341  14.212  44.730  0.00  0.00    +0.000 A 
ATOM      4  C   UNL     1      12.698  13.346  44.575  0.00  0.00    +0.000 A 
ATOM      5  C   UNL     1      15.053  12.848  44.703  0.00  0.00    +0.000 A 
ATOM      6  C   UNL     1      13.732  12.414  44.628  0.00  0.00    +0.000 A 
ENDROOT
BRANCH   1   8
ATOM      7  O   UNL     1      15.737  17.061  44.794  0.00  0.00    +0.000 OA
ATOM      8  C   UNL     1      14.605  16.630  44.691  0.00  0.00    +0.000 C 
BRANCH   8   9
ATOM      9  O   UNL     1      13.525  17.438  44.570  0.00  0.00    +0.000 OA
ATOM     10  C   UNL     1      13.165  18.306  45.672  0.00  0.00    +0.000 C 
ENDBRANCH   8   9
ENDBRANCH   1   8
BRANCH   6  11
ATOM     11  O   UNL     1      13.459  11.079  44.604  0.00  0.00    +0.000 OA
ATOM     12  H   UNL     1      12.498  10.932  44.669  0.00  0.00    +0.000 HD
ENDBRANCH   6  11
TORSDOF 3
ENDMDL
MODEL 11
REMARK VINA RESULT:    -3.964      1.725      2.491
REMARK INTER + INTRA:          -4.627
REMARK INTER:                  -4.546
REMARK INTRA:                  -0.081
REMARK UNBOUND:                -0.084
REMARK  Name = opt19.pdb
REMARK  4 active torsions:
REMARK  status: ('A' for Active; 'I' for Inactive)
REMARK    1  A    between atoms: C_2  and  O_3
REMARK    2  A    between atoms: C_2  and  C_4
REMARK    3  A    between atoms: O_3  and  C_5
REMARK    4  A    between atoms: C_10  and  O_11
REMARK                            x       y       z     vdW  Elec       q    Type
REMARK                         _______ _______ _______ _____ _____    ______ ____
ROOT
ATOM      1  C   UNL     1      13.593  14.569  44.779  0.00  0.00    +0.000 A 
ATOM      2  C   UNL     1      14.377  15.717  44.631  0.00  0.00    +0.000 A 
ATOM      3  C   UNL     1      14.217  13.359  45.104  0.00  0.00    +0.000 A 
ATOM      4  C   UNL     1      15.760  15.659  44.803  0.00  0.00    +0.000 A 
ATOM      5  C   UNL     1      15.598  13.301  45.282  0.00  0.00    +0.000 A 
ATOM      6  C   UNL     1      16.371  14.449  45.130  0.00  0.00    +0.000 A 
ENDROOT
BRANCH   1   8
ATOM      7  O   UNL     1      11.532  15.705  44.402  0.00  0.00    +0.000 OA
ATOM      8  C   UNL     1      12.103  14.649  44.594  0.00  0.00    +0.000 C 
BRANCH   8   9
ATOM      9  O   UNL     1      11.450  13.464  44.642  0.00  0.00    +0.000 OA
ATOM     10  C   UNL     1      10.294  13.259  43.794  0.00  0.00    +0.000 C 
ENDBRANCH   8   9
ENDBRANCH   1   8
BRANCH   6  11
ATOM     11  O   UNL     1      17.722  14.384  45.304  0.00  0.00    +0.000 OA
ATOM     12  H   UNL     1      18.076  13.582  44.878  0.00  0.00    +0.000 HD
ENDBRANCH   6  11
TORSDOF 3
ENDMDL
MODEL 12
REMARK VINA RESULT:    -3.886      2.163      2.886
REMARK INTER + INTRA:          -4.538
REMARK INTER:                  -4.462
REMARK INTRA:                  -0.076
REMARK UNBOUND:                -0.084
REMARK  Name = opt19.pdb
REMARK  4 active torsions:
REMARK  status: ('A' for Active; 'I' for Inactive)
REMARK    1  A    between atoms: C_2  and  O_3
REMARK    2  A    between atoms: C_2  and  C_4
REMARK    3  A    between atoms: O_3  and  C_5
REMARK    4  A    between atoms: C_10  and  O_11
REMARK                            x       y       z     vdW  Elec       q    Type
REMARK                         _______ _______ _______ _____ _____    ______ ____
ROOT
ATOM      1  C   UNL     1      12.182  13.006  43.644  0.00  0.00    +0.000 A 
ATOM      2  C   UNL     1      12.801  13.662  44.711  0.00  0.00    +0.000 A 
ATOM      3  C   UNL     1      12.979  12.443  42.639  0.00  0.00    +0.000 A 
ATOM      4  C   UNL     1      14.191  13.758  44.776  0.00  0.00    +0.000 A 
ATOM      5  C   UNL     1      14.369  12.534  42.706  0.00  0.00    +0.000 A 
ATOM      6  C   UNL     1      14.976  13.192  43.772  0.00  0.00    +0.000 A 
ENDROOT
BRANCH   1   8
ATOM      7  O   UNL     1      10.108  12.254  42.742  0.00  0.00    +0.000 OA
ATOM      8  C   UNL     1      10.683  12.908  43.590  0.00  0.00    +0.000 C 
BRANCH   8   9
ATOM      9  O   UNL     1      10.024  13.589  44.559  0.00  0.00    +0.000 OA
ATOM     10  C   UNL     1       8.579  13.662  44.512  0.00  0.00    +0.000 C 
ENDBRANCH   8   9
ENDBRANCH   1   8
BRANCH   6  11
ATOM     11  O   UNL     1      16.335  13.276  43.829  0.00  0.00    +0.000 OA
ATOM     12  H   UNL     1      16.603  13.917  44.513  0.00  0.00    +0.000 HD
ENDBRANCH   6  11
TORSDOF 3
ENDMDL
MODEL 13
REMARK VINA RESULT:    -3.871      2.488      3.847
REMARK INTER + INTRA:          -4.520
REMARK INTER:                  -4.449
REMARK INTRA:                  -0.071
REMARK UNBOUND:                -0.084
REMARK  Name = opt19.pdb
REMARK  4 active torsions:
REMARK  status: ('A' for Active; 'I' for Inactive)
REMARK    1  A    between atoms: C_2  and  O_3
REMARK    2  A    between atoms: C_2  and  C_4
REMARK    3  A    between atoms: O_3  and  C_5
REMARK    4  A    between atoms: C_10  and  O_11
REMARK                            x       y       z     vdW  Elec       q    Type
REMARK                         _______ _______ _______ _____ _____    ______ ____
ROOT
ATOM      1  C   UNL     1      13.640  14.015  44.384  0.00  0.00    +0.000 A 
ATOM      2  C   UNL     1      12.293  14.378  44.479  0.00  0.00    +0.000 A 
ATOM      3  C   UNL     1      14.621  15.002  44.538  0.00  0.00    +0.000 A 
ATOM      4  C   UNL     1      11.931  15.703  44.721  0.00  0.00    +0.000 A 
ATOM      5  C   UNL     1      14.260  16.325  44.786  0.00  0.00    +0.000 A 
ATOM      6  C   UNL     1      12.916  16.677  44.876  0.00  0.00    +0.000 A 
ENDROOT
BRANCH   1   8
ATOM      7  O   UNL     1      13.434  11.656  44.659  0.00  0.00    +0.000 OA
ATOM      8  C   UNL     1      14.014  12.582  44.125  0.00  0.00    +0.000 C 
BRANCH   8   9
ATOM      9  O   UNL     1      15.030  12.399  43.249  0.00  0.00    +0.000 OA
ATOM     10  C   UNL     1      14.799  12.636  41.839  0.00  0.00    +0.000 C 
ENDBRANCH   8   9
ENDBRANCH   1   8
BRANCH   6  11
ATOM     11  O   UNL     1      12.571  17.974  45.118  0.00  0.00    +0.000 OA
ATOM     12  H   UNL     1      13.118  18.337  45.838  0.00  0.00    +0.000 HD
ENDBRANCH   6  11
TORSDOF 3
ENDMDL
MODEL 14
REMARK VINA RESULT:    -3.866      2.129      3.109
REMARK INTER + INTRA:          -4.516
REMARK INTER:                  -4.441
REMARK INTRA:                  -0.075
REMARK UNBOUND:                -0.084
REMARK  Name = opt19.pdb
REMARK  4 active torsions:
REMARK  status: ('A' for Active; 'I' for Inactive)
REMARK    1  A    between atoms: C_2  and  O_3
REMARK    2  A    between atoms: C_2  and  C_4
REMARK    3  A    between atoms: O_3  and  C_5
REMARK    4  A    between atoms: C_10  and  O_11
REMARK                            x       y       z     vdW  Elec       q    Type
REMARK                         _______ _______ _______ _____ _____    ______ ____
ROOT
ATOM      1  C   UNL     1      12.305  12.998  43.549  0.00  0.00    +0.000 A 
ATOM      2  C   UNL     1      13.069  12.435  42.522  0.00  0.00    +0.000 A 
ATOM      3  C   UNL     1      12.958  13.675  44.586  0.00  0.00    +0.000 A 
ATOM      4  C   UNL     1      14.459  12.545  42.530  0.00  0.00    +0.000 A 
ATOM      5  C   UNL     1      14.347  13.791  44.591  0.00  0.00    +0.000 A 
ATOM      6  C   UNL     1      15.099  13.225  43.565  0.00  0.00    +0.000 A 
ENDROOT
BRANCH   1   8
ATOM      7  O   UNL     1      10.222  12.285  42.636  0.00  0.00    +0.000 OA
ATOM      8  C   UNL     1      10.807  12.874  43.525  0.00  0.00    +0.000 C 
BRANCH   8   9
ATOM      9  O   UNL     1      10.162  13.449  44.567  0.00  0.00    +0.000 OA
ATOM     10  C   UNL     1       8.718  13.550  44.536  0.00  0.00    +0.000 C 
ENDBRANCH   8   9
ENDBRANCH   1   8
BRANCH   6  11
ATOM     11  O   UNL     1      16.457  13.341  43.579  0.00  0.00    +0.000 OA
ATOM     12  H   UNL     1      16.868  12.461  43.647  0.00  0.00    +0.000 HD
ENDBRANCH   6  11
TORSDOF 3
ENDMDL
MODEL 15
REMARK VINA RESULT:    -3.847      1.787      4.438
REMARK INTER + INTRA:          -4.493
REMARK INTER:                  -4.399
REMARK INTRA:                  -0.094
REMARK UNBOUND:                -0.084
REMARK  Name = opt19.pdb
REMARK  4 active torsions:
REMARK  status: ('A' for Active; 'I' for Inactive)
REMARK    1  A    between atoms: C_2  and  O_3
REMARK    2  A    between atoms: C_2  and  C_4
REMARK    3  A    between atoms: O_3  and  C_5
REMARK    4  A    between atoms: C_10  and  O_11
REMARK                            x       y       z     vdW  Elec       q    Type
REMARK                         _______ _______ _______ _____ _____    ______ ____
ROOT
ATOM      1  C   UNL     1      15.309  14.498  43.330  0.00  0.00    +0.000 A 
ATOM      2  C   UNL     1      14.908  14.409  44.667  0.00  0.00    +0.000 A 
ATOM      3  C   UNL     1      15.028  13.434  42.466  0.00  0.00    +0.000 A 
ATOM      4  C   UNL     1      14.239  13.278  45.133  0.00  0.00    +0.000 A 
ATOM      5  C   UNL     1      14.354  12.305  42.930  0.00  0.00    +0.000 A 
ATOM      6  C   UNL     1      13.960  12.225  44.263  0.00  0.00    +0.000 A 
ENDROOT
BRANCH   1   8
ATOM      7  O   UNL     1      16.285  15.899  41.667  0.00  0.00    +0.000 OA
ATOM      8  C   UNL     1      16.028  15.726  42.842  0.00  0.00    +0.000 C 
BRANCH   8   9
ATOM      9  O   UNL     1      16.353  16.625  43.801  0.00  0.00    +0.000 OA
ATOM     10  C   UNL     1      17.749  16.878  44.088  0.00  0.00    +0.000 C 
ENDBRANCH   8   9
ENDBRANCH   1   8
BRANCH   6  11
ATOM     11  O   UNL     1      13.302  11.118  44.709  0.00  0.00    +0.000 OA
ATOM     12  H   UNL     1      13.078  10.537  43.959  0.00  0.00    +0.000 HD
ENDBRANCH   6  11
TORSDOF 3
ENDMDL
MODEL 16
REMARK VINA RESULT:    -3.810      2.815      4.563
REMARK INTER + INTRA:          -4.451
REMARK INTER:                  -4.358
REMARK INTRA:                  -0.093
REMARK UNBOUND:                -0.084
REMARK  Name = opt19.pdb
REMARK  4 active torsions:
REMARK  status: ('A' for Active; 'I' for Inactive)
REMARK    1  A    between atoms: C_2  and  O_3
REMARK    2  A    between atoms: C_2  and  C_4
REMARK    3  A    between atoms: O_3  and  C_5
REMARK    4  A    between atoms: C_10  and  O_11
REMARK                            x       y       z     vdW  Elec       q    Type
REMARK                         _______ _______ _______ _____ _____    ______ ____
ROOT
ATOM      1  C   UNL     1      13.917  15.434  44.675  0.00  0.00    +0.000 A 
ATOM      2  C   UNL     1      15.091  14.700  44.869  0.00  0.00    +0.000 A 
ATOM      3  C   UNL     1      12.703  14.749  44.544  0.00  0.00    +0.000 A 
ATOM      4  C   UNL     1      15.055  13.307  44.931  0.00  0.00    +0.000 A 
ATOM      5  C   UNL     1      12.666  13.357  44.611  0.00  0.00    +0.000 A 
ATOM      6  C   UNL     1      13.841  12.635  44.803  0.00  0.00    +0.000 A 
ENDROOT
BRANCH   1   8
ATOM      7  O   UNL     1      12.966  17.619  44.610  0.00  0.00    +0.000 OA
ATOM      8  C   UNL     1      13.972  16.935  44.614  0.00  0.00    +0.000 C 
BRANCH   8   9
ATOM      9  O   UNL     1      15.217  17.467  44.576  0.00  0.00    +0.000 OA
ATOM     10  C   UNL     1      15.607  18.424  45.591  0.00  0.00    +0.000 C 
ENDBRANCH   8   9
ENDBRANCH   1   8
BRANCH   6  11
ATOM     11  O   UNL     1      13.796  11.274  44.867  0.00  0.00    +0.000 OA
ATOM     12  H   UNL     1      13.641  10.987  45.785  0.00  0.00    +0.000 HD
ENDBRANCH   6  11
TORSDOF 3
ENDMDL
MODEL 17
REMARK VINA RESULT:    -3.802      2.829      4.711
REMARK INTER + INTRA:          -4.442
REMARK INTER:                  -4.349
REMARK INTRA:                  -0.093
REMARK UNBOUND:                -0.084
REMARK  Name = opt19.pdb
REMARK  4 active torsions:
REMARK  status: ('A' for Active; 'I' for Inactive)
REMARK    1  A    between atoms: C_2  and  O_3
REMARK    2  A    between atoms: C_2  and  C_4
REMARK    3  A    between atoms: O_3  and  C_5
REMARK    4  A    between atoms: C_10  and  O_11
REMARK                            x       y       z     vdW  Elec       q    Type
REMARK                         _______ _______ _______ _____ _____    ______ ____
ROOT
ATOM      1  C   UNL     1      13.847  15.501  44.721  0.00  0.00    +0.000 A 
ATOM      2  C   UNL     1      12.588  14.906  44.600  0.00  0.00    +0.000 A 
ATOM      3  C   UNL     1      14.975  14.681  44.855  0.00  0.00    +0.000 A 
ATOM      4  C   UNL     1      12.455  13.517  44.612  0.00  0.00    +0.000 A 
ATOM      5  C   UNL     1      14.842  13.293  44.861  0.00  0.00    +0.000 A 
ATOM      6  C   UNL     1      13.584  12.710  44.742  0.00  0.00    +0.000 A 
ENDROOT
BRANCH   1   8
ATOM      7  O   UNL     1      13.004  17.729  44.642  0.00  0.00    +0.000 OA
ATOM      8  C   UNL     1      13.975  16.998  44.704  0.00  0.00    +0.000 C 
BRANCH   8   9
ATOM      9  O   UNL     1      15.242  17.472  44.775  0.00  0.00    +0.000 OA
ATOM     10  C   UNL     1      15.628  18.287  45.908  0.00  0.00    +0.000 C 
ENDBRANCH   8   9
ENDBRANCH   1   8
BRANCH   6  11
ATOM     11  O   UNL     1      13.464  11.352  44.750  0.00  0.00    +0.000 OA
ATOM     12  H   UNL     1      13.317  11.034  45.659  0.00  0.00    +0.000 HD
ENDBRANCH   6  11
TORSDOF 3
ENDMDL
MODEL 18
REMARK VINA RESULT:    -3.782      3.105      4.518
REMARK INTER + INTRA:          -4.419
REMARK INTER:                  -4.340
REMARK INTRA:                  -0.079
REMARK UNBOUND:                -0.084
REMARK  Name = opt19.pdb
REMARK  4 active torsions:
REMARK  status: ('A' for Active; 'I' for Inactive)
REMARK    1  A    between atoms: C_2  and  O_3
REMARK    2  A    between atoms: C_2  and  C_4
REMARK    3  A    between atoms: O_3  and  C_5
REMARK    4  A    between atoms: C_10  and  O_11
REMARK                            x       y       z     vdW  Elec       q    Type
REMARK                         _______ _______ _______ _____ _____    ______ ____
ROOT
ATOM      1  C   UNL     1      13.841  15.555  44.742  0.00  0.00    +0.000 A 
ATOM      2  C   UNL     1      14.985  14.754  44.771  0.00  0.00    +0.000 A 
ATOM      3  C   UNL     1      12.584  14.941  44.694  0.00  0.00    +0.000 A 
ATOM      4  C   UNL     1      14.879  13.363  44.751  0.00  0.00    +0.000 A 
ATOM      5  C   UNL     1      12.477  13.551  44.680  0.00  0.00    +0.000 A 
ATOM      6  C   UNL     1      13.623  12.761  44.707  0.00  0.00    +0.000 A 
ENDROOT
BRANCH   1   8
ATOM      7  O   UNL     1      14.912  17.628  44.252  0.00  0.00    +0.000 OA
ATOM      8  C   UNL     1      13.972  17.053  44.766  0.00  0.00    +0.000 C 
BRANCH   8   9
ATOM      9  O   UNL     1      12.964  17.711  45.387  0.00  0.00    +0.000 OA
ATOM     10  C   UNL     1      12.627  19.053  44.958  0.00  0.00    +0.000 C 
ENDBRANCH   8   9
ENDBRANCH   1   8
BRANCH   6  11
ATOM     11  O   UNL     1      13.510  11.403  44.693  0.00  0.00    +0.000 OA
ATOM     12  H   UNL     1      14.298  10.996  45.096  0.00  0.00    +0.000 HD
ENDBRANCH   6  11
TORSDOF 3
ENDMDL
MODEL 19
REMARK VINA RESULT:    -3.675      1.994      2.785
REMARK INTER + INTRA:          -4.296
REMARK INTER:                  -4.213
REMARK INTRA:                  -0.083
REMARK UNBOUND:                -0.084
REMARK  Name = opt19.pdb
REMARK  4 active torsions:
REMARK  status: ('A' for Active; 'I' for Inactive)
REMARK    1  A    between atoms: C_2  and  O_3
REMARK    2  A    between atoms: C_2  and  C_4
REMARK    3  A    between atoms: O_3  and  C_5
REMARK    4  A    between atoms: C_10  and  O_11
REMARK                            x       y       z     vdW  Elec       q    Type
REMARK                         _______ _______ _______ _____ _____    ______ ____
ROOT
ATOM      1  C   UNL     1      12.722  13.671  44.306  0.00  0.00    +0.000 A 
ATOM      2  C   UNL     1      13.498  12.509  44.333  0.00  0.00    +0.000 A 
ATOM      3  C   UNL     1      13.323  14.896  44.620  0.00  0.00    +0.000 A 
ATOM      4  C   UNL     1      14.851  12.567  44.668  0.00  0.00    +0.000 A 
ATOM      5  C   UNL     1      14.676  14.955  44.949  0.00  0.00    +0.000 A 
ATOM      6  C   UNL     1      15.441  13.792  44.976  0.00  0.00    +0.000 A 
ENDROOT
BRANCH   1   8
ATOM      7  O   UNL     1      10.401  13.388  44.770  0.00  0.00    +0.000 OA
ATOM      8  C   UNL     1      11.266  13.593  43.939  0.00  0.00    +0.000 C 
BRANCH   8   9
ATOM      9  O   UNL     1      10.989  13.780  42.627  0.00  0.00    +0.000 OA
ATOM     10  C   UNL     1      10.514  12.662  41.839  0.00  0.00    +0.000 C 
ENDBRANCH   8   9
ENDBRANCH   1   8
BRANCH   6  11
ATOM     11  O   UNL     1      16.763  13.859  45.300  0.00  0.00    +0.000 OA
ATOM     12  H   UNL     1      16.866  14.053  46.249  0.00  0.00    +0.000 HD
ENDBRANCH   6  11
TORSDOF 3
ENDMDL
MODEL 20
REMARK VINA RESULT:    -3.529      2.153      4.747
REMARK INTER + INTRA:          -4.129
REMARK INTER:                  -4.047
REMARK INTRA:                  -0.082
REMARK UNBOUND:                -0.084
REMARK  Name = opt19.pdb
REMARK  4 active torsions:
REMARK  status: ('A' for Active; 'I' for Inactive)
REMARK    1  A    between atoms: C_2  and  O_3
REMARK    2  A    between atoms: C_2  and  C_4
REMARK    3  A    between atoms: O_3  and  C_5
REMARK    4  A    between atoms: C_10  and  O_11
REMARK                            x       y       z     vdW  Elec       q    Type
REMARK                         _______ _______ _______ _____ _____    ______ ____
ROOT
ATOM      1  C   UNL     1      12.452  13.561  44.194  0.00  0.00    +0.000 A 
ATOM      2  C   UNL     1      12.760  14.797  44.770  0.00  0.00    +0.000 A 
ATOM      3  C   UNL     1      11.247  13.421  43.494  0.00  0.00    +0.000 A 
ATOM      4  C   UNL     1      11.882  15.874  44.653  0.00  0.00    +0.000 A 
ATOM      5  C   UNL     1      10.372  14.499  43.372  0.00  0.00    +0.000 A 
ATOM      6  C   UNL     1      10.687  15.725  43.951  0.00  0.00    +0.000 A 
ENDROOT
BRANCH   1   8
ATOM      7  O   UNL     1      13.029  11.266  44.480  0.00  0.00    +0.000 OA
ATOM      8  C   UNL     1      13.410  12.411  44.327  0.00  0.00    +0.000 C 
BRANCH   8   9
ATOM      9  O   UNL     1      14.722  12.739  44.249  0.00  0.00    +0.000 OA
ATOM     10  C   UNL     1      15.319  12.963  42.949  0.00  0.00    +0.000 C 
ENDBRANCH   8   9
ENDBRANCH   1   8
BRANCH   6  11
ATOM     11  O   UNL     1       9.825  16.774  43.827  0.00  0.00    +0.000 OA
ATOM     12  H   UNL     1       9.692  17.202  44.692  0.00  0.00    +0.000 HD
ENDBRANCH   6  11
TORSDOF 3
ENDMDL
