MODEL 1
REMARK VINA RESULT:    -4.239      0.000      0.000
REMARK INTER + INTRA:          -4.645
REMARK INTER:                  -4.487
REMARK INTRA:                  -0.158
REMARK UNBOUND:                -0.158
REMARK  Name = opt33.pdb
REMARK  4 active torsions:
REMARK  status: ('A' for Active; 'I' for Inactive)
REMARK    1  A    between atoms: C_1  and  C_3
REMARK    2  A    between atoms: C_3  and  C_6
REMARK    3  A    between atoms: C_3  and  C_7
REMARK    4  A    between atoms: C_9  and  C_10
REMARK                            x       y       z     vdW  Elec       q    Type
REMARK                         _______ _______ _______ _____ _____    ______ ____
ROOT
ATOM      1  C   UNL     1      14.512  14.802  44.815  0.00  0.00    +0.000 C 
ATOM      2  C   UNL     1      14.011  13.567  44.865  0.00  0.00    +0.000 C 
ATOM      3  C   UNL     1      13.633  16.034  44.654  0.00  0.00    +0.000 C 
ATOM      4  C   UNL     1      12.712  13.304  44.768  0.00  0.00    +0.000 C 
ATOM      5  C   UNL     1      12.121  15.728  44.546  0.00  0.00    +0.000 C 
ATOM      6  C   UNL     1      11.789  14.250  44.616  0.00  0.00    +0.000 C 
ATOM      7  C   UNL     1      10.313  13.927  44.501  0.00  0.00    +0.000 C 
ENDROOT
BRANCH   1   8
ATOM      8  C   UNL     1      16.004  15.114  44.915  0.00  0.00    +0.000 C 
ATOM      9  C   UNL     1      16.233  16.604  45.243  0.00  0.00    +0.000 C 
ATOM     10  C   UNL     1      16.753  14.221  45.931  0.00  0.00    +0.000 C 
ENDBRANCH   1   8
TORSDOF 1
ENDMDL
MODEL 2
REMARK VINA RESULT:    -4.229      1.129      4.351
REMARK INTER + INTRA:          -4.634
REMARK INTER:                  -4.482
REMARK INTRA:                  -0.152
REMARK UNBOUND:                -0.158
REMARK  Name = opt33.pdb
REMARK  4 active torsions:
REMARK  status: ('A' for Active; 'I' for Inactive)
REMARK    1  A    between atoms: C_1  and  C_3
REMARK    2  A    between atoms: C_3  and  C_6
REMARK    3  A    between atoms: C_3  and  C_7
REMARK    4  A    between atoms: C_9  and  C_10
REMARK                            x       y       z     vdW  Elec       q    Type
REMARK                         _______ _______ _______ _____ _____    ______ ____
ROOT
ATOM      1  C   UNL     1      14.646  13.999  45.013  0.00  0.00    +0.000 C 
ATOM      2  C   UNL     1      15.787  13.662  45.616  0.00  0.00    +0.000 C 
ATOM      3  C   UNL     1      14.478  15.308  44.256  0.00  0.00    +0.000 C 
ATOM      4  C   UNL     1      16.866  14.438  45.619  0.00  0.00    +0.000 C 
ATOM      5  C   UNL     1      15.734  16.209  44.256  0.00  0.00    +0.000 C 
ATOM      6  C   UNL     1      16.908  15.624  45.016  0.00  0.00    +0.000 C 
ATOM      7  C   UNL     1      18.147  16.497  45.038  0.00  0.00    +0.000 C 
ENDROOT
BRANCH   1   8
ATOM      8  C   UNL     1      13.398  13.118  45.013  0.00  0.00    +0.000 C 
ATOM      9  C   UNL     1      12.142  13.945  44.670  0.00  0.00    +0.000 C 
ATOM     10  C   UNL     1      13.507  11.895  44.073  0.00  0.00    +0.000 C 
ENDBRANCH   1   8
TORSDOF 1
ENDMDL
MODEL 3
REMARK VINA RESULT:    -4.174      0.946      4.151
REMARK INTER + INTRA:          -4.577
REMARK INTER:                  -4.419
REMARK INTRA:                  -0.158
REMARK UNBOUND:                -0.158
REMARK  Name = opt33.pdb
REMARK  4 active torsions:
REMARK  status: ('A' for Active; 'I' for Inactive)
REMARK    1  A    between atoms: C_1  and  C_3
REMARK    2  A    between atoms: C_3  and  C_6
REMARK    3  A    between atoms: C_3  and  C_7
REMARK    4  A    between atoms: C_9  and  C_10
REMARK                            x       y       z     vdW  Elec       q    Type
REMARK                         _______ _______ _______ _____ _____    ______ ____
ROOT
ATOM      1  C   UNL     1      13.282  14.574  44.854  0.00  0.00    +0.000 C 
ATOM      2  C   UNL     1      13.981  13.471  45.127  0.00  0.00    +0.000 C 
ATOM      3  C   UNL     1      13.946  15.918  44.596  0.00  0.00    +0.000 C 
ATOM      4  C   UNL     1      15.307  13.451  45.208  0.00  0.00    +0.000 C 
ATOM      5  C   UNL     1      15.489  15.894  44.686  0.00  0.00    +0.000 C 
ATOM      6  C   UNL     1      16.062  14.530  45.021  0.00  0.00    +0.000 C 
ATOM      7  C   UNL     1      17.573  14.487  45.126  0.00  0.00    +0.000 C 
ENDROOT
BRANCH   1   8
ATOM      8  C   UNL     1      11.757  14.608  44.767  0.00  0.00    +0.000 C 
ATOM      9  C   UNL     1      11.272  15.943  44.164  0.00  0.00    +0.000 C 
ATOM     10  C   UNL     1      11.157  13.418  43.984  0.00  0.00    +0.000 C 
ENDBRANCH   1   8
TORSDOF 1
ENDMDL
MODEL 4
REMARK VINA RESULT:    -4.158      1.512      2.776
REMARK INTER + INTRA:          -4.560
REMARK INTER:                  -4.402
REMARK INTRA:                  -0.158
REMARK UNBOUND:                -0.158
REMARK  Name = opt33.pdb
REMARK  4 active torsions:
REMARK  status: ('A' for Active; 'I' for Inactive)
REMARK    1  A    between atoms: C_1  and  C_3
REMARK    2  A    between atoms: C_3  and  C_6
REMARK    3  A    between atoms: C_3  and  C_7
REMARK    4  A    between atoms: C_9  and  C_10
REMARK                            x       y       z     vdW  Elec       q    Type
REMARK                         _______ _______ _______ _____ _____    ______ ____
ROOT
ATOM      1  C   UNL     1      12.682  13.951  44.707  0.00  0.00    +0.000 C 
ATOM      2  C   UNL     1      11.408  13.643  44.462  0.00  0.00    +0.000 C 
ATOM      3  C   UNL     1      13.215  15.372  44.596  0.00  0.00    +0.000 C 
ATOM      4  C   UNL     1      10.501  14.540  44.091  0.00  0.00    +0.000 C 
ATOM      5  C   UNL     1      12.158  16.416  44.168  0.00  0.00    +0.000 C 
ATOM      6  C   UNL     1      10.779  15.831  43.932  0.00  0.00    +0.000 C 
ATOM      7  C   UNL     1       9.731  16.837  43.501  0.00  0.00    +0.000 C 
ENDROOT
BRANCH   1   8
ATOM      8  C   UNL     1      13.734  12.925  45.126  0.00  0.00    +0.000 C 
ATOM      9  C   UNL     1      13.790  11.755  44.122  0.00  0.00    +0.000 C 
ATOM     10  C   UNL     1      15.144  13.531  45.320  0.00  0.00    +0.000 C 
ENDBRANCH   1   8
TORSDOF 1
ENDMDL
MODEL 5
REMARK VINA RESULT:    -4.154      1.122      1.376
REMARK INTER + INTRA:          -4.556
REMARK INTER:                  -4.409
REMARK INTRA:                  -0.147
REMARK UNBOUND:                -0.158
REMARK  Name = opt33.pdb
REMARK  4 active torsions:
REMARK  status: ('A' for Active; 'I' for Inactive)
REMARK    1  A    between atoms: C_1  and  C_3
REMARK    2  A    between atoms: C_3  and  C_6
REMARK    3  A    between atoms: C_3  and  C_7
REMARK    4  A    between atoms: C_9  and  C_10
REMARK                            x       y       z     vdW  Elec       q    Type
REMARK                         _______ _______ _______ _____ _____    ______ ____
ROOT
ATOM      1  C   UNL     1      15.353  14.345  44.852  0.00  0.00    +0.000 C 
ATOM      2  C   UNL     1      14.686  13.194  44.942  0.00  0.00    +0.000 C 
ATOM      3  C   UNL     1      14.652  15.684  44.677  0.00  0.00    +0.000 C 
ATOM      4  C   UNL     1      13.361  13.114  44.875  0.00  0.00    +0.000 C 
ATOM      5  C   UNL     1      13.111  15.591  44.603  0.00  0.00    +0.000 C 
ATOM      6  C   UNL     1      12.576  14.176  44.716  0.00  0.00    +0.000 C 
ATOM      7  C   UNL     1      11.067  14.062  44.634  0.00  0.00    +0.000 C 
ENDROOT
BRANCH   1   8
ATOM      8  C   UNL     1      16.876  14.446  44.919  0.00  0.00    +0.000 C 
ATOM      9  C   UNL     1      17.494  14.361  43.508  0.00  0.00    +0.000 C 
ATOM     10  C   UNL     1      17.378  15.714  45.648  0.00  0.00    +0.000 C 
ENDBRANCH   1   8
TORSDOF 1
ENDMDL
MODEL 6
REMARK VINA RESULT:    -4.125      1.523      3.071
REMARK INTER + INTRA:          -4.525
REMARK INTER:                  -4.371
REMARK INTRA:                  -0.154
REMARK UNBOUND:                -0.158
REMARK  Name = opt33.pdb
REMARK  4 active torsions:
REMARK  status: ('A' for Active; 'I' for Inactive)
REMARK    1  A    between atoms: C_1  and  C_3
REMARK    2  A    between atoms: C_3  and  C_6
REMARK    3  A    between atoms: C_3  and  C_7
REMARK    4  A    between atoms: C_9  and  C_10
REMARK                            x       y       z     vdW  Elec       q    Type
REMARK                         _______ _______ _______ _____ _____    ______ ____
ROOT
ATOM      1  C   UNL     1      12.637  14.009  44.640  0.00  0.00    +0.000 C 
ATOM      2  C   UNL     1      12.851  15.325  44.651  0.00  0.00    +0.000 C 
ATOM      3  C   UNL     1      11.303  13.402  44.231  0.00  0.00    +0.000 C 
ATOM      4  C   UNL     1      11.924  16.217  44.319  0.00  0.00    +0.000 C 
ATOM      5  C   UNL     1      10.225  14.439  43.841  0.00  0.00    +0.000 C 
ATOM      6  C   UNL     1      10.694  15.878  43.941  0.00  0.00    +0.000 C 
ATOM      7  C   UNL     1       9.648  16.911  43.574  0.00  0.00    +0.000 C 
ENDROOT
BRANCH   1   8
ATOM      8  C   UNL     1      13.695  12.977  45.029  0.00  0.00    +0.000 C 
ATOM      9  C   UNL     1      13.792  11.863  43.966  0.00  0.00    +0.000 C 
ATOM     10  C   UNL     1      15.089  13.592  45.289  0.00  0.00    +0.000 C 
ENDBRANCH   1   8
TORSDOF 1
ENDMDL
MODEL 7
REMARK VINA RESULT:    -4.083      0.967      4.427
REMARK INTER + INTRA:          -4.480
REMARK INTER:                  -4.323
REMARK INTRA:                  -0.156
REMARK UNBOUND:                -0.158
REMARK  Name = opt33.pdb
REMARK  4 active torsions:
REMARK  status: ('A' for Active; 'I' for Inactive)
REMARK    1  A    between atoms: C_1  and  C_3
REMARK    2  A    between atoms: C_3  and  C_6
REMARK    3  A    between atoms: C_3  and  C_7
REMARK    4  A    between atoms: C_9  and  C_10
REMARK                            x       y       z     vdW  Elec       q    Type
REMARK                         _______ _______ _______ _____ _____    ______ ____
ROOT
ATOM      1  C   UNL     1      13.222  14.668  44.755  0.00  0.00    +0.000 C 
ATOM      2  C   UNL     1      14.015  15.734  44.634  0.00  0.00    +0.000 C 
ATOM      3  C   UNL     1      13.769  13.259  44.932  0.00  0.00    +0.000 C 
ATOM      4  C   UNL     1      15.341  15.659  44.646  0.00  0.00    +0.000 C 
ATOM      5  C   UNL     1      15.313  13.173  44.950  0.00  0.00    +0.000 C 
ATOM      6  C   UNL     1      16.003  14.513  44.783  0.00  0.00    +0.000 C 
ATOM      7  C   UNL     1      17.517  14.449  44.786  0.00  0.00    +0.000 C 
ENDROOT
BRANCH   1   8
ATOM      8  C   UNL     1      11.696  14.743  44.733  0.00  0.00    +0.000 C 
ATOM      9  C   UNL     1      11.220  16.034  44.036  0.00  0.00    +0.000 C 
ATOM     10  C   UNL     1      11.028  13.508  44.087  0.00  0.00    +0.000 C 
ENDBRANCH   1   8
TORSDOF 1
ENDMDL
MODEL 8
REMARK VINA RESULT:    -4.014      1.292      2.056
REMARK INTER + INTRA:          -4.407
REMARK INTER:                  -4.262
REMARK INTRA:                  -0.146
REMARK UNBOUND:                -0.158
REMARK  Name = opt33.pdb
REMARK  4 active torsions:
REMARK  status: ('A' for Active; 'I' for Inactive)
REMARK    1  A    between atoms: C_1  and  C_3
REMARK    2  A    between atoms: C_3  and  C_6
REMARK    3  A    between atoms: C_3  and  C_7
REMARK    4  A    between atoms: C_9  and  C_10
REMARK                            x       y       z     vdW  Elec       q    Type
REMARK                         _______ _______ _______ _____ _____    ______ ____
ROOT
ATOM      1  C   UNL     1      14.465  13.631  44.281  0.00  0.00    +0.000 C 
ATOM      2  C   UNL     1      13.636  14.535  44.804  0.00  0.00    +0.000 C 
ATOM      3  C   UNL     1      13.967  12.406  43.528  0.00  0.00    +0.000 C 
ATOM      4  C   UNL     1      12.313  14.442  44.725  0.00  0.00    +0.000 C 
ATOM      5  C   UNL     1      12.428  12.300  43.432  0.00  0.00    +0.000 C 
ATOM      6  C   UNL     1      11.692  13.437  44.112  0.00  0.00    +0.000 C 
ATOM      7  C   UNL     1      10.181  13.346  44.040  0.00  0.00    +0.000 C 
ENDROOT
BRANCH   1   8
ATOM      8  C   UNL     1      15.987  13.725  44.375  0.00  0.00    +0.000 C 
ATOM      9  C   UNL     1      16.529  14.812  43.424  0.00  0.00    +0.000 C 
ATOM     10  C   UNL     1      16.502  13.966  45.812  0.00  0.00    +0.000 C 
ENDBRANCH   1   8
TORSDOF 1
ENDMDL
MODEL 9
REMARK VINA RESULT:    -4.010      1.019      4.537
REMARK INTER + INTRA:          -4.402
REMARK INTER:                  -4.256
REMARK INTRA:                  -0.146
REMARK UNBOUND:                -0.158
REMARK  Name = opt33.pdb
REMARK  4 active torsions:
REMARK  status: ('A' for Active; 'I' for Inactive)
REMARK    1  A    between atoms: C_1  and  C_3
REMARK    2  A    between atoms: C_3  and  C_6
REMARK    3  A    between atoms: C_3  and  C_7
REMARK    4  A    between atoms: C_9  and  C_10
REMARK                            x       y       z     vdW  Elec       q    Type
REMARK                         _______ _______ _______ _____ _____    ______ ____
ROOT
ATOM      1  C   UNL     1      14.091  14.362  44.747  0.00  0.00    +0.000 C 
ATOM      2  C   UNL     1      14.235  15.668  44.516  0.00  0.00    +0.000 C 
ATOM      3  C   UNL     1      15.201  13.512  45.348  0.00  0.00    +0.000 C 
ATOM      4  C   UNL     1      15.354  16.334  44.777  0.00  0.00    +0.000 C 
ATOM      5  C   UNL     1      16.502  14.289  45.656  0.00  0.00    +0.000 C 
ATOM      6  C   UNL     1      16.436  15.761  45.297  0.00  0.00    +0.000 C 
ATOM      7  C   UNL     1      17.706  16.538  45.580  0.00  0.00    +0.000 C 
ENDROOT
BRANCH   1   8
ATOM      8  C   UNL     1      12.811  13.586  44.442  0.00  0.00    +0.000 C 
ATOM      9  C   UNL     1      11.566  14.396  44.856  0.00  0.00    +0.000 C 
ATOM     10  C   UNL     1      12.696  13.144  42.964  0.00  0.00    +0.000 C 
ENDBRANCH   1   8
TORSDOF 1
ENDMDL
MODEL 10
REMARK VINA RESULT:    -3.997      1.435      3.407
REMARK INTER + INTRA:          -4.389
REMARK INTER:                  -4.242
REMARK INTRA:                  -0.147
REMARK UNBOUND:                -0.158
REMARK  Name = opt33.pdb
REMARK  4 active torsions:
REMARK  status: ('A' for Active; 'I' for Inactive)
REMARK    1  A    between atoms: C_1  and  C_3
REMARK    2  A    between atoms: C_3  and  C_6
REMARK    3  A    between atoms: C_3  and  C_7
REMARK    4  A    between atoms: C_9  and  C_10
REMARK                            x       y       z     vdW  Elec       q    Type
REMARK                         _______ _______ _______ _____ _____    ______ ____
ROOT
ATOM      1  C   UNL     1      12.831  15.845  44.689  0.00  0.00    +0.000 C 
ATOM      2  C   UNL     1      12.030  14.780  44.629  0.00  0.00    +0.000 C 
ATOM      3  C   UNL     1      14.347  15.731  44.624  0.00  0.00    +0.000 C 
ATOM      4  C   UNL     1      12.481  13.535  44.520  0.00  0.00    +0.000 C 
ATOM      5  C   UNL     1      14.871  14.283  44.493  0.00  0.00    +0.000 C 
ATOM      6  C   UNL     1      13.775  13.236  44.456  0.00  0.00    +0.000 C 
ATOM      7  C   UNL     1      14.269  11.807  44.339  0.00  0.00    +0.000 C 
ENDROOT
BRANCH   1   8
ATOM      8  C   UNL     1      12.321  17.279  44.824  0.00  0.00    +0.000 C 
ATOM      9  C   UNL     1      13.200  18.083  45.805  0.00  0.00    +0.000 C 
ATOM     10  C   UNL     1      12.208  18.023  43.473  0.00  0.00    +0.000 C 
ENDBRANCH   1   8
TORSDOF 1
ENDMDL
MODEL 11
REMARK VINA RESULT:    -3.982      1.259      2.217
REMARK INTER + INTRA:          -4.373
REMARK INTER:                  -4.226
REMARK INTRA:                  -0.147
REMARK UNBOUND:                -0.158
REMARK  Name = opt33.pdb
REMARK  4 active torsions:
REMARK  status: ('A' for Active; 'I' for Inactive)
REMARK    1  A    between atoms: C_1  and  C_3
REMARK    2  A    between atoms: C_3  and  C_6
REMARK    3  A    between atoms: C_3  and  C_7
REMARK    4  A    between atoms: C_9  and  C_10
REMARK                            x       y       z     vdW  Elec       q    Type
REMARK                         _______ _______ _______ _____ _____    ______ ____
ROOT
ATOM      1  C   UNL     1      15.483  14.261  44.640  0.00  0.00    +0.000 C 
ATOM      2  C   UNL     1      14.686  15.328  44.578  0.00  0.00    +0.000 C 
ATOM      3  C   UNL     1      14.944  12.839  44.679  0.00  0.00    +0.000 C 
ATOM      4  C   UNL     1      13.359  15.245  44.557  0.00  0.00    +0.000 C 
ATOM      5  C   UNL     1      13.401  12.742  44.650  0.00  0.00    +0.000 C 
ATOM      6  C   UNL     1      12.704  14.088  44.592  0.00  0.00    +0.000 C 
ATOM      7  C   UNL     1      11.190  14.015  44.574  0.00  0.00    +0.000 C 
ENDROOT
BRANCH   1   8
ATOM      8  C   UNL     1      17.008  14.347  44.674  0.00  0.00    +0.000 C 
ATOM      9  C   UNL     1      17.596  14.247  43.251  0.00  0.00    +0.000 C 
ATOM     10  C   UNL     1      17.538  15.614  45.384  0.00  0.00    +0.000 C 
ENDBRANCH   1   8
TORSDOF 1
ENDMDL
MODEL 12
REMARK VINA RESULT:    -3.961      1.397      4.471
REMARK INTER + INTRA:          -4.351
REMARK INTER:                  -4.207
REMARK INTRA:                  -0.144
REMARK UNBOUND:                -0.158
REMARK  Name = opt33.pdb
REMARK  4 active torsions:
REMARK  status: ('A' for Active; 'I' for Inactive)
REMARK    1  A    between atoms: C_1  and  C_3
REMARK    2  A    between atoms: C_3  and  C_6
REMARK    3  A    between atoms: C_3  and  C_7
REMARK    4  A    between atoms: C_9  and  C_10
REMARK                            x       y       z     vdW  Elec       q    Type
REMARK                         _______ _______ _______ _____ _____    ______ ____
ROOT
ATOM      1  C   UNL     1      14.303  13.959  44.653  0.00  0.00    +0.000 C 
ATOM      2  C   UNL     1      15.166  13.760  45.649  0.00  0.00    +0.000 C 
ATOM      3  C   UNL     1      14.747  14.380  43.260  0.00  0.00    +0.000 C 
ATOM      4  C   UNL     1      16.479  13.922  45.519  0.00  0.00    +0.000 C 
ATOM      5  C   UNL     1      16.274  14.565  43.107  0.00  0.00    +0.000 C 
ATOM      6  C   UNL     1      17.054  14.295  44.378  0.00  0.00    +0.000 C 
ATOM      7  C   UNL     1      18.553  14.482  44.253  0.00  0.00    +0.000 C 
ENDROOT
BRANCH   1   8
ATOM      8  C   UNL     1      12.792  13.783  44.796  0.00  0.00    +0.000 C 
ATOM      9  C   UNL     1      12.072  15.145  44.716  0.00  0.00    +0.000 C 
ATOM     10  C   UNL     1      12.186  12.796  43.773  0.00  0.00    +0.000 C 
ENDBRANCH   1   8
TORSDOF 1
ENDMDL
MODEL 13
REMARK VINA RESULT:    -3.950      1.471      3.475
REMARK INTER + INTRA:          -4.340
REMARK INTER:                  -4.182
REMARK INTRA:                  -0.158
REMARK UNBOUND:                -0.158
REMARK  Name = opt33.pdb
REMARK  4 active torsions:
REMARK  status: ('A' for Active; 'I' for Inactive)
REMARK    1  A    between atoms: C_1  and  C_3
REMARK    2  A    between atoms: C_3  and  C_6
REMARK    3  A    between atoms: C_3  and  C_7
REMARK    4  A    between atoms: C_9  and  C_10
REMARK                            x       y       z     vdW  Elec       q    Type
REMARK                         _______ _______ _______ _____ _____    ______ ____
ROOT
ATOM      1  C   UNL     1      13.228  14.422  44.650  0.00  0.00    +0.000 C 
ATOM      2  C   UNL     1      12.045  15.033  44.735  0.00  0.00    +0.000 C 
ATOM      3  C   UNL     1      14.544  15.187  44.648  0.00  0.00    +0.000 C 
ATOM      4  C   UNL     1      11.912  16.353  44.815  0.00  0.00    +0.000 C 
ATOM      5  C   UNL     1      14.388  16.722  44.745  0.00  0.00    +0.000 C 
ATOM      6  C   UNL     1      12.947  17.188  44.820  0.00  0.00    +0.000 C 
ATOM      7  C   UNL     1      12.772  18.691  44.903  0.00  0.00    +0.000 C 
ENDROOT
BRANCH   1   8
ATOM      8  C   UNL     1      13.391  12.907  44.549  0.00  0.00    +0.000 C 
ATOM      9  C   UNL     1      12.515  12.335  43.415  0.00  0.00    +0.000 C 
ATOM     10  C   UNL     1      14.859  12.455  44.371  0.00  0.00    +0.000 C 
ENDBRANCH   1   8
TORSDOF 1
ENDMDL
MODEL 14
REMARK VINA RESULT:    -3.914      1.453      3.492
REMARK INTER + INTRA:          -4.301
REMARK INTER:                  -4.155
REMARK INTRA:                  -0.146
REMARK UNBOUND:                -0.158
REMARK  Name = opt33.pdb
REMARK  4 active torsions:
REMARK  status: ('A' for Active; 'I' for Inactive)
REMARK    1  A    between atoms: C_1  and  C_3
REMARK    2  A    between atoms: C_3  and  C_6
REMARK    3  A    between atoms: C_3  and  C_7
REMARK    4  A    between atoms: C_9  and  C_10
REMARK                            x       y       z     vdW  Elec       q    Type
REMARK                         _______ _______ _______ _____ _____    ______ ____
ROOT
ATOM      1  C   UNL     1      12.914  15.965  44.741  0.00  0.00    +0.000 C 
ATOM      2  C   UNL     1      14.216  15.684  44.678  0.00  0.00    +0.000 C 
ATOM      3  C   UNL     1      11.842  14.886  44.681  0.00  0.00    +0.000 C 
ATOM      4  C   UNL     1      14.690  14.450  44.546  0.00  0.00    +0.000 C 
ATOM      5  C   UNL     1      12.393  13.449  44.532  0.00  0.00    +0.000 C 
ATOM      6  C   UNL     1      13.906  13.377  44.469  0.00  0.00    +0.000 C 
ATOM      7  C   UNL     1      14.467  11.978  44.311  0.00  0.00    +0.000 C 
ENDROOT
BRANCH   1   8
ATOM      8  C   UNL     1      12.361  17.382  44.883  0.00  0.00    +0.000 C 
ATOM      9  C   UNL     1      13.216  18.209  45.865  0.00  0.00    +0.000 C 
ATOM     10  C   UNL     1      12.221  18.127  43.536  0.00  0.00    +0.000 C 
ENDBRANCH   1   8
TORSDOF 1
ENDMDL
MODEL 15
REMARK VINA RESULT:    -3.905      2.495      3.415
REMARK INTER + INTRA:          -4.292
REMARK INTER:                  -4.145
REMARK INTRA:                  -0.147
REMARK UNBOUND:                -0.158
REMARK  Name = opt33.pdb
REMARK  4 active torsions:
REMARK  status: ('A' for Active; 'I' for Inactive)
REMARK    1  A    between atoms: C_1  and  C_3
REMARK    2  A    between atoms: C_3  and  C_6
REMARK    3  A    between atoms: C_3  and  C_7
REMARK    4  A    between atoms: C_9  and  C_10
REMARK                            x       y       z     vdW  Elec       q    Type
REMARK                         _______ _______ _______ _____ _____    ______ ____
ROOT
ATOM      1  C   UNL     1      17.367  14.626  44.236  0.00  0.00    +0.000 C 
ATOM      2  C   UNL     1      16.758  14.371  45.395  0.00  0.00    +0.000 C 
ATOM      3  C   UNL     1      16.842  14.107  42.906  0.00  0.00    +0.000 C 
ATOM      4  C   UNL     1      15.654  13.638  45.491  0.00  0.00    +0.000 C 
ATOM      5  C   UNL     1      15.555  13.258  43.018  0.00  0.00    +0.000 C 
ATOM      6  C   UNL     1      15.051  13.093  44.438  0.00  0.00    +0.000 C 
ATOM      7  C   UNL     1      13.796  12.253  44.571  0.00  0.00    +0.000 C 
ENDROOT
BRANCH   1   8
ATOM      8  C   UNL     1      18.642  15.459  44.117  0.00  0.00    +0.000 C 
ATOM      9  C   UNL     1      18.590  16.679  45.060  0.00  0.00    +0.000 C 
ATOM     10  C   UNL     1      19.935  14.648  44.363  0.00  0.00    +0.000 C 
ENDBRANCH   1   8
TORSDOF 1
ENDMDL
MODEL 16
REMARK VINA RESULT:    -3.900      1.410      1.671
REMARK INTER + INTRA:          -4.287
REMARK INTER:                  -4.142
REMARK INTRA:                  -0.144
REMARK UNBOUND:                -0.158
REMARK  Name = opt33.pdb
REMARK  4 active torsions:
REMARK  status: ('A' for Active; 'I' for Inactive)
REMARK    1  A    between atoms: C_1  and  C_3
REMARK    2  A    between atoms: C_3  and  C_6
REMARK    3  A    between atoms: C_3  and  C_7
REMARK    4  A    between atoms: C_9  and  C_10
REMARK                            x       y       z     vdW  Elec       q    Type
REMARK                         _______ _______ _______ _____ _____    ______ ____
ROOT
ATOM      1  C   UNL     1      13.945  13.462  44.091  0.00  0.00    +0.000 C 
ATOM      2  C   UNL     1      13.220  12.470  43.574  0.00  0.00    +0.000 C 
ATOM      3  C   UNL     1      13.313  14.690  44.729  0.00  0.00    +0.000 C 
ATOM      4  C   UNL     1      11.891  12.471  43.559  0.00  0.00    +0.000 C 
ATOM      5  C   UNL     1      11.767  14.689  44.715  0.00  0.00    +0.000 C 
ATOM      6  C   UNL     1      11.161  13.462  44.063  0.00  0.00    +0.000 C 
ATOM      7  C   UNL     1       9.646  13.447  44.029  0.00  0.00    +0.000 C 
ENDROOT
BRANCH   1   8
ATOM      8  C   UNL     1      15.473  13.474  44.104  0.00  0.00    +0.000 C 
ATOM      9  C   UNL     1      16.023  14.502  43.095  0.00  0.00    +0.000 C 
ATOM     10  C   UNL     1      16.076  13.724  45.506  0.00  0.00    +0.000 C 
ENDBRANCH   1   8
TORSDOF 1
ENDMDL
MODEL 17
REMARK VINA RESULT:    -3.897      1.502      3.422
REMARK INTER + INTRA:          -4.283
REMARK INTER:                  -4.129
REMARK INTRA:                  -0.153
REMARK UNBOUND:                -0.158
REMARK  Name = opt33.pdb
REMARK  4 active torsions:
REMARK  status: ('A' for Active; 'I' for Inactive)
REMARK    1  A    between atoms: C_1  and  C_3
REMARK    2  A    between atoms: C_3  and  C_6
REMARK    3  A    between atoms: C_3  and  C_7
REMARK    4  A    between atoms: C_9  and  C_10
REMARK                            x       y       z     vdW  Elec       q    Type
REMARK                         _______ _______ _______ _____ _____    ______ ____
ROOT
ATOM      1  C   UNL     1      13.325  14.380  44.639  0.00  0.00    +0.000 C 
ATOM      2  C   UNL     1      14.352  15.231  44.641  0.00  0.00    +0.000 C 
ATOM      3  C   UNL     1      11.878  14.845  44.712  0.00  0.00    +0.000 C 
ATOM      4  C   UNL     1      14.204  16.550  44.717  0.00  0.00    +0.000 C 
ATOM      5  C   UNL     1      11.706  16.379  44.796  0.00  0.00    +0.000 C 
ATOM      6  C   UNL     1      13.016  17.143  44.795  0.00  0.00    +0.000 C 
ATOM      7  C   UNL     1      12.870  18.649  44.889  0.00  0.00    +0.000 C 
ENDROOT
BRANCH   1   8
ATOM      8  C   UNL     1      13.486  12.863  44.561  0.00  0.00    +0.000 C 
ATOM      9  C   UNL     1      12.593  12.273  43.449  0.00  0.00    +0.000 C 
ATOM     10  C   UNL     1      14.951  12.407  44.370  0.00  0.00    +0.000 C 
ENDBRANCH   1   8
TORSDOF 1
ENDMDL
MODEL 18
REMARK VINA RESULT:    -3.871      1.545      4.526
REMARK INTER + INTRA:          -4.255
REMARK INTER:                  -4.104
REMARK INTRA:                  -0.151
REMARK UNBOUND:                -0.158
REMARK  Name = opt33.pdb
REMARK  4 active torsions:
REMARK  status: ('A' for Active; 'I' for Inactive)
REMARK    1  A    between atoms: C_1  and  C_3
REMARK    2  A    between atoms: C_3  and  C_6
REMARK    3  A    between atoms: C_3  and  C_7
REMARK    4  A    between atoms: C_9  and  C_10
REMARK                            x       y       z     vdW  Elec       q    Type
REMARK                         _______ _______ _______ _____ _____    ______ ____
ROOT
ATOM      1  C   UNL     1      12.817  13.407  43.617  0.00  0.00    +0.000 C 
ATOM      2  C   UNL     1      13.667  12.416  43.890  0.00  0.00    +0.000 C 
ATOM      3  C   UNL     1      13.086  14.848  44.024  0.00  0.00    +0.000 C 
ATOM      4  C   UNL     1      14.809  12.595  44.545  0.00  0.00    +0.000 C 
ATOM      5  C   UNL     1      14.417  15.058  44.783  0.00  0.00    +0.000 C 
ATOM      6  C   UNL     1      15.212  13.783  44.987  0.00  0.00    +0.000 C 
ATOM      7  C   UNL     1      16.516  13.965  45.739  0.00  0.00    +0.000 C 
ENDROOT
BRANCH   1   8
ATOM      8  C   UNL     1      11.498  13.209  42.873  0.00  0.00    +0.000 C 
ATOM      9  C   UNL     1      11.322  11.735  42.450  0.00  0.00    +0.000 C 
ATOM     10  C   UNL     1      10.262  13.688  43.670  0.00  0.00    +0.000 C 
ENDBRANCH   1   8
TORSDOF 1
ENDMDL
MODEL 19
REMARK VINA RESULT:    -3.851      1.454      3.018
REMARK INTER + INTRA:          -4.235
REMARK INTER:                  -4.077
REMARK INTRA:                  -0.158
REMARK UNBOUND:                -0.158
REMARK  Name = opt33.pdb
REMARK  4 active torsions:
REMARK  status: ('A' for Active; 'I' for Inactive)
REMARK    1  A    between atoms: C_1  and  C_3
REMARK    2  A    between atoms: C_3  and  C_6
REMARK    3  A    between atoms: C_3  and  C_7
REMARK    4  A    between atoms: C_9  and  C_10
REMARK                            x       y       z     vdW  Elec       q    Type
REMARK                         _______ _______ _______ _____ _____    ______ ____
ROOT
ATOM      1  C   UNL     1      14.480  15.052  44.646  0.00  0.00    +0.000 C 
ATOM      2  C   UNL     1      15.064  16.249  44.721  0.00  0.00    +0.000 C 
ATOM      3  C   UNL     1      12.969  14.879  44.642  0.00  0.00    +0.000 C 
ATOM      4  C   UNL     1      14.383  17.386  44.810  0.00  0.00    +0.000 C 
ATOM      5  C   UNL     1      12.177  16.203  44.741  0.00  0.00    +0.000 C 
ATOM      6  C   UNL     1      13.054  17.437  44.829  0.00  0.00    +0.000 C 
ATOM      7  C   UNL     1      12.297  18.745  44.938  0.00  0.00    +0.000 C 
ENDROOT
BRANCH   1   8
ATOM      8  C   UNL     1      15.255  13.738  44.553  0.00  0.00    +0.000 C 
ATOM      9  C   UNL     1      16.329  13.655  45.657  0.00  0.00    +0.000 C 
ATOM     10  C   UNL     1      14.350  12.485  44.590  0.00  0.00    +0.000 C 
ENDBRANCH   1   8
TORSDOF 1
ENDMDL
MODEL 20
REMARK VINA RESULT:    -3.809      1.855      5.014
REMARK INTER + INTRA:          -4.190
REMARK INTER:                  -4.044
REMARK INTRA:                  -0.145
REMARK UNBOUND:                -0.158
REMARK  Name = opt33.pdb
REMARK  4 active torsions:
REMARK  status: ('A' for Active; 'I' for Inactive)
REMARK    1  A    between atoms: C_1  and  C_3
REMARK    2  A    between atoms: C_3  and  C_6
REMARK    3  A    between atoms: C_3  and  C_7
REMARK    4  A    between atoms: C_9  and  C_10
REMARK                            x       y       z     vdW  Elec       q    Type
REMARK                         _______ _______ _______ _____ _____    ______ ____
ROOT
ATOM      1  C   UNL     1      15.330  14.067  44.112  0.00  0.00    +0.000 C 
ATOM      2  C   UNL     1      15.968  14.240  45.270  0.00  0.00    +0.000 C 
ATOM      3  C   UNL     1      16.053  14.071  42.773  0.00  0.00    +0.000 C 
ATOM      4  C   UNL     1      17.279  14.441  45.356  0.00  0.00    +0.000 C 
ATOM      5  C   UNL     1      17.578  14.301  42.874  0.00  0.00    +0.000 C 
ATOM      6  C   UNL     1      18.078  14.485  44.293  0.00  0.00    +0.000 C 
ATOM      7  C   UNL     1      19.570  14.723  44.413  0.00  0.00    +0.000 C 
ENDROOT
BRANCH   1   8
ATOM      8  C   UNL     1      13.823  13.845  44.003  0.00  0.00    +0.000 C 
ATOM      9  C   UNL     1      13.411  12.526  44.690  0.00  0.00    +0.000 C 
ATOM     10  C   UNL     1      12.984  15.021  44.555  0.00  0.00    +0.000 C 
ENDBRANCH   1   8
TORSDOF 1
ENDMDL
