MODEL 1
REMARK VINA RESULT:    -4.350      0.000      0.000
REMARK INTER + INTRA:          -4.604
REMARK INTER:                  -4.604
REMARK INTRA:                   0.000
REMARK UNBOUND:                 0.000
REMARK  Name = opt78.pdb
REMARK  2 active torsions:
REMARK  status: ('A' for Active; 'I' for Inactive)
REMARK    1  A    between atoms: O_1  and  C_2
REMARK    2  A    between atoms: C_3  and  O_5
REMARK                            x       y       z     vdW  Elec       q    Type
REMARK                         _______ _______ _______ _____ _____    ______ ____
ROOT
ATOM      1  C   UNL     1      13.187  12.129  43.919  0.00  0.00    +0.000 A 
ATOM      2  C   UNL     1      14.494  11.861  44.335  0.00  0.00    +0.000 A 
ATOM      3  C   UNL     1      12.749  13.448  43.811  0.00  0.00    +0.000 A 
ATOM      4  C   UNL     1      15.348  12.912  44.668  0.00  0.00    +0.000 A 
ATOM      5  C   UNL     1      13.606  14.498  44.135  0.00  0.00    +0.000 A 
ATOM      6  C   UNL     1      14.903  14.230  44.568  0.00  0.00    +0.000 A 
ENDROOT
BRANCH   1   7
ATOM      7  O   UNL     1      12.322  11.108  43.647  0.00  0.00    +0.000 OA
ATOM      8  H   UNL     1      11.408  11.440  43.709  0.00  0.00    +0.000 HD
ENDBRANCH   1   7
BRANCH   2   9
ATOM      9  O   UNL     1      14.956  10.578  44.388  0.00  0.00    +0.000 OA
ATOM     10  H   UNL     1      14.349  10.000  43.891  0.00  0.00    +0.000 HD
ENDBRANCH   2   9
TORSDOF 2
ENDMDL
MODEL 2
REMARK VINA RESULT:    -4.344      0.337      2.226
REMARK INTER + INTRA:          -4.598
REMARK INTER:                  -4.598
REMARK INTRA:                   0.000
REMARK UNBOUND:                 0.000
REMARK  Name = opt78.pdb
REMARK  2 active torsions:
REMARK  status: ('A' for Active; 'I' for Inactive)
REMARK    1  A    between atoms: O_1  and  C_2
REMARK    2  A    between atoms: C_3  and  O_5
REMARK                            x       y       z     vdW  Elec       q    Type
REMARK                         _______ _______ _______ _____ _____    ______ ____
ROOT
ATOM      1  C   UNL     1      14.297  11.710  44.375  0.00  0.00    +0.000 A 
ATOM      2  C   UNL     1      12.998  11.876  43.887  0.00  0.00    +0.000 A 
ATOM      3  C   UNL     1      15.063  12.827  44.705  0.00  0.00    +0.000 A 
ATOM      4  C   UNL     1      12.481  13.158  43.705  0.00  0.00    +0.000 A 
ATOM      5  C   UNL     1      14.542  14.108  44.531  0.00  0.00    +0.000 A 
ATOM      6  C   UNL     1      13.253  14.273  44.027  0.00  0.00    +0.000 A 
ENDROOT
BRANCH   1   7
ATOM      7  O   UNL     1      14.837  10.463  44.502  0.00  0.00    +0.000 OA
ATOM      8  H   UNL     1      15.472  10.314  43.777  0.00  0.00    +0.000 HD
ENDBRANCH   1   7
BRANCH   2   9
ATOM      9  O   UNL     1      12.215  10.790  43.616  0.00  0.00    +0.000 OA
ATOM     10  H   UNL     1      11.287  11.008  43.820  0.00  0.00    +0.000 HD
ENDBRANCH   2   9
TORSDOF 2
ENDMDL
MODEL 3
REMARK VINA RESULT:    -4.247      1.252      2.201
REMARK INTER + INTRA:          -4.495
REMARK INTER:                  -4.495
REMARK INTRA:                   0.000
REMARK UNBOUND:                 0.000
REMARK  Name = opt78.pdb
REMARK  2 active torsions:
REMARK  status: ('A' for Active; 'I' for Inactive)
REMARK    1  A    between atoms: O_1  and  C_2
REMARK    2  A    between atoms: C_3  and  O_5
REMARK                            x       y       z     vdW  Elec       q    Type
REMARK                         _______ _______ _______ _____ _____    ______ ____
ROOT
ATOM      1  C   UNL     1      14.046  11.844  44.344  0.00  0.00    +0.000 A 
ATOM      2  C   UNL     1      14.428  13.056  44.925  0.00  0.00    +0.000 A 
ATOM      3  C   UNL     1      12.811  11.736  43.707  0.00  0.00    +0.000 A 
ATOM      4  C   UNL     1      13.562  14.148  44.890  0.00  0.00    +0.000 A 
ATOM      5  C   UNL     1      11.950  12.831  43.665  0.00  0.00    +0.000 A 
ATOM      6  C   UNL     1      12.323  14.035  44.260  0.00  0.00    +0.000 A 
ENDROOT
BRANCH   1   7
ATOM      7  O   UNL     1      14.860  10.749  44.423  0.00  0.00    +0.000 OA
ATOM      8  H   UNL     1      14.337   9.949  44.233  0.00  0.00    +0.000 HD
ENDBRANCH   1   7
BRANCH   2   9
ATOM      9  O   UNL     1      15.659  13.193  45.500  0.00  0.00    +0.000 OA
ATOM     10  H   UNL     1      16.271  13.586  44.852  0.00  0.00    +0.000 HD
ENDBRANCH   2   9
TORSDOF 2
ENDMDL
MODEL 4
REMARK VINA RESULT:    -4.190      1.296      2.416
REMARK INTER + INTRA:          -4.435
REMARK INTER:                  -4.435
REMARK INTRA:                   0.000
REMARK UNBOUND:                 0.000
REMARK  Name = opt78.pdb
REMARK  2 active torsions:
REMARK  status: ('A' for Active; 'I' for Inactive)
REMARK    1  A    between atoms: O_1  and  C_2
REMARK    2  A    between atoms: C_3  and  O_5
REMARK                            x       y       z     vdW  Elec       q    Type
REMARK                         _______ _______ _______ _____ _____    ______ ____
ROOT
ATOM      1  C   UNL     1      14.306  13.036  44.953  0.00  0.00    +0.000 A 
ATOM      2  C   UNL     1      14.085  11.799  44.342  0.00  0.00    +0.000 A 
ATOM      3  C   UNL     1      13.381  14.066  44.793  0.00  0.00    +0.000 A 
ATOM      4  C   UNL     1      12.954  11.606  43.549  0.00  0.00    +0.000 A 
ATOM      5  C   UNL     1      12.246  13.869  44.008  0.00  0.00    +0.000 A 
ATOM      6  C   UNL     1      12.035  12.642  43.383  0.00  0.00    +0.000 A 
ENDROOT
BRANCH   1   7
ATOM      7  O   UNL     1      15.439  13.257  45.683  0.00  0.00    +0.000 OA
ATOM      8  H   UNL     1      16.215  13.179  45.099  0.00  0.00    +0.000 HD
ENDBRANCH   1   7
BRANCH   2   9
ATOM      9  O   UNL     1      14.953  10.763  44.539  0.00  0.00    +0.000 OA
ATOM     10  H   UNL     1      15.866  11.090  44.449  0.00  0.00    +0.000 HD
ENDBRANCH   2   9
TORSDOF 2
ENDMDL
MODEL 5
REMARK VINA RESULT:    -3.956      2.420      3.542
REMARK INTER + INTRA:          -4.187
REMARK INTER:                  -4.187
REMARK INTRA:                   0.000
REMARK UNBOUND:                 0.000
REMARK  Name = opt78.pdb
REMARK  2 active torsions:
REMARK  status: ('A' for Active; 'I' for Inactive)
REMARK    1  A    between atoms: O_1  and  C_2
REMARK    2  A    between atoms: C_3  and  O_5
REMARK                            x       y       z     vdW  Elec       q    Type
REMARK                         _______ _______ _______ _____ _____    ______ ____
ROOT
ATOM      1  C   UNL     1      16.419  13.693  45.094  0.00  0.00    +0.000 A 
ATOM      2  C   UNL     1      15.314  13.103  44.474  0.00  0.00    +0.000 A 
ATOM      3  C   UNL     1      17.385  14.340  44.325  0.00  0.00    +0.000 A 
ATOM      4  C   UNL     1      15.195  13.138  43.086  0.00  0.00    +0.000 A 
ATOM      5  C   UNL     1      17.259  14.383  42.938  0.00  0.00    +0.000 A 
ATOM      6  C   UNL     1      16.167  13.778  42.318  0.00  0.00    +0.000 A 
ENDROOT
BRANCH   1   7
ATOM      7  O   UNL     1      16.579  13.615  46.448  0.00  0.00    +0.000 OA
ATOM      8  H   UNL     1      15.931  12.983  46.810  0.00  0.00    +0.000 HD
ENDBRANCH   1   7
BRANCH   2   9
ATOM      9  O   UNL     1      14.331  12.518  45.219  0.00  0.00    +0.000 OA
ATOM     10  H   UNL     1      13.614  12.225  44.627  0.00  0.00    +0.000 HD
ENDBRANCH   2   9
TORSDOF 2
ENDMDL
MODEL 6
REMARK VINA RESULT:    -3.949      2.413      2.923
REMARK INTER + INTRA:          -4.180
REMARK INTER:                  -4.180
REMARK INTRA:                   0.000
REMARK UNBOUND:                 0.000
REMARK  Name = opt78.pdb
REMARK  2 active torsions:
REMARK  status: ('A' for Active; 'I' for Inactive)
REMARK    1  A    between atoms: O_1  and  C_2
REMARK    2  A    between atoms: C_3  and  O_5
REMARK                            x       y       z     vdW  Elec       q    Type
REMARK                         _______ _______ _______ _____ _____    ______ ____
ROOT
ATOM      1  C   UNL     1      15.258  13.128  44.517  0.00  0.00    +0.000 A 
ATOM      2  C   UNL     1      16.379  13.695  45.129  0.00  0.00    +0.000 A 
ATOM      3  C   UNL     1      15.137  13.153  43.128  0.00  0.00    +0.000 A 
ATOM      4  C   UNL     1      17.360  14.309  44.353  0.00  0.00    +0.000 A 
ATOM      5  C   UNL     1      16.124  13.760  42.352  0.00  0.00    +0.000 A 
ATOM      6  C   UNL     1      17.232  14.342  42.965  0.00  0.00    +0.000 A 
ENDROOT
BRANCH   1   7
ATOM      7  O   UNL     1      14.261  12.576  45.268  0.00  0.00    +0.000 OA
ATOM      8  H   UNL     1      14.303  12.941  46.171  0.00  0.00    +0.000 HD
ENDBRANCH   1   7
BRANCH   2   9
ATOM      9  O   UNL     1      16.539  13.624  46.483  0.00  0.00    +0.000 OA
ATOM     10  H   UNL     1      16.129  12.803  46.810  0.00  0.00    +0.000 HD
ENDBRANCH   2   9
TORSDOF 2
ENDMDL
MODEL 7
REMARK VINA RESULT:    -3.849      1.342      1.584
REMARK INTER + INTRA:          -4.074
REMARK INTER:                  -4.074
REMARK INTRA:                   0.000
REMARK UNBOUND:                 0.000
REMARK  Name = opt78.pdb
REMARK  2 active torsions:
REMARK  status: ('A' for Active; 'I' for Inactive)
REMARK    1  A    between atoms: O_1  and  C_2
REMARK    2  A    between atoms: C_3  and  O_5
REMARK                            x       y       z     vdW  Elec       q    Type
REMARK                         _______ _______ _______ _____ _____    ______ ____
ROOT
ATOM      1  C   UNL     1      12.597  13.706  44.554  0.00  0.00    +0.000 A 
ATOM      2  C   UNL     1      13.654  12.817  44.771  0.00  0.00    +0.000 A 
ATOM      3  C   UNL     1      12.846  15.075  44.471  0.00  0.00    +0.000 A 
ATOM      4  C   UNL     1      14.950  13.304  44.931  0.00  0.00    +0.000 A 
ATOM      5  C   UNL     1      14.144  15.559  44.622  0.00  0.00    +0.000 A 
ATOM      6  C   UNL     1      15.195  14.674  44.857  0.00  0.00    +0.000 A 
ENDROOT
BRANCH   1   7
ATOM      7  O   UNL     1      11.314  13.249  44.455  0.00  0.00    +0.000 OA
ATOM      8  H   UNL     1      11.318  12.275  44.506  0.00  0.00    +0.000 HD
ENDBRANCH   1   7
BRANCH   2   9
ATOM      9  O   UNL     1      13.433  11.470  44.795  0.00  0.00    +0.000 OA
ATOM     10  H   UNL     1      12.680  11.281  45.385  0.00  0.00    +0.000 HD
ENDBRANCH   2   9
TORSDOF 2
ENDMDL
MODEL 8
REMARK VINA RESULT:    -3.842      1.192      2.474
REMARK INTER + INTRA:          -4.067
REMARK INTER:                  -4.067
REMARK INTRA:                   0.000
REMARK UNBOUND:                 0.000
REMARK  Name = opt78.pdb
REMARK  2 active torsions:
REMARK  status: ('A' for Active; 'I' for Inactive)
REMARK    1  A    between atoms: O_1  and  C_2
REMARK    2  A    between atoms: C_3  and  O_5
REMARK                            x       y       z     vdW  Elec       q    Type
REMARK                         _______ _______ _______ _____ _____    ______ ____
ROOT
ATOM      1  C   UNL     1      13.693  12.564  44.635  0.00  0.00    +0.000 A 
ATOM      2  C   UNL     1      12.700  13.530  44.452  0.00  0.00    +0.000 A 
ATOM      3  C   UNL     1      15.026  12.952  44.760  0.00  0.00    +0.000 A 
ATOM      4  C   UNL     1      13.047  14.877  44.367  0.00  0.00    +0.000 A 
ATOM      5  C   UNL     1      15.371  14.301  44.683  0.00  0.00    +0.000 A 
ATOM      6  C   UNL     1      14.382  15.263  44.482  0.00  0.00    +0.000 A 
ENDROOT
BRANCH   1   7
ATOM      7  O   UNL     1      13.374  11.236  44.661  0.00  0.00    +0.000 OA
ATOM      8  H   UNL     1      14.106  10.741  45.071  0.00  0.00    +0.000 HD
ENDBRANCH   1   7
BRANCH   2   9
ATOM      9  O   UNL     1      11.385  13.169  44.389  0.00  0.00    +0.000 OA
ATOM     10  H   UNL     1      11.041  13.374  43.500  0.00  0.00    +0.000 HD
ENDBRANCH   2   9
TORSDOF 2
ENDMDL
MODEL 9
REMARK VINA RESULT:    -3.691      1.391      1.731
REMARK INTER + INTRA:          -3.906
REMARK INTER:                  -3.906
REMARK INTRA:                   0.000
REMARK UNBOUND:                 0.000
REMARK  Name = opt78.pdb
REMARK  2 active torsions:
REMARK  status: ('A' for Active; 'I' for Inactive)
REMARK    1  A    between atoms: O_1  and  C_2
REMARK    2  A    between atoms: C_3  and  O_5
REMARK                            x       y       z     vdW  Elec       q    Type
REMARK                         _______ _______ _______ _____ _____    ______ ____
ROOT
ATOM      1  C   UNL     1      13.393  12.879  44.734  0.00  0.00    +0.000 A 
ATOM      2  C   UNL     1      14.634  13.515  44.821  0.00  0.00    +0.000 A 
ATOM      3  C   UNL     1      12.231  13.636  44.591  0.00  0.00    +0.000 A 
ATOM      4  C   UNL     1      14.705  14.907  44.795  0.00  0.00    +0.000 A 
ATOM      5  C   UNL     1      12.305  15.028  44.556  0.00  0.00    +0.000 A 
ATOM      6  C   UNL     1      13.541  15.663  44.662  0.00  0.00    +0.000 A 
ENDROOT
BRANCH   1   7
ATOM      7  O   UNL     1      13.302  11.519  44.818  0.00  0.00    +0.000 OA
ATOM      8  H   UNL     1      13.899  11.202  45.521  0.00  0.00    +0.000 HD
ENDBRANCH   1   7
BRANCH   2   9
ATOM      9  O   UNL     1      15.784  12.784  44.900  0.00  0.00    +0.000 OA
ATOM     10  H   UNL     1      15.657  12.059  45.539  0.00  0.00    +0.000 HD
ENDBRANCH   2   9
TORSDOF 2
ENDMDL
MODEL 10
REMARK VINA RESULT:    -3.576      1.792      3.136
REMARK INTER + INTRA:          -3.785
REMARK INTER:                  -3.785
REMARK INTRA:                   0.000
REMARK UNBOUND:                 0.000
REMARK  Name = opt78.pdb
REMARK  2 active torsions:
REMARK  status: ('A' for Active; 'I' for Inactive)
REMARK    1  A    between atoms: O_1  and  C_2
REMARK    2  A    between atoms: C_3  and  O_5
REMARK                            x       y       z     vdW  Elec       q    Type
REMARK                         _______ _______ _______ _____ _____    ______ ____
ROOT
ATOM      1  C   UNL     1      13.049  13.513  44.775  0.00  0.00    +0.000 A 
ATOM      2  C   UNL     1      11.785  14.057  44.534  0.00  0.00    +0.000 A 
ATOM      3  C   UNL     1      14.162  14.349  44.857  0.00  0.00    +0.000 A 
ATOM      4  C   UNL     1      11.643  15.431  44.347  0.00  0.00    +0.000 A 
ATOM      5  C   UNL     1      14.017  15.724  44.678  0.00  0.00    +0.000 A 
ATOM      6  C   UNL     1      12.758  16.264  44.419  0.00  0.00    +0.000 A 
ENDROOT
BRANCH   1   7
ATOM      7  O   UNL     1      13.212  12.163  44.901  0.00  0.00    +0.000 OA
ATOM      8  H   UNL     1      12.338  11.733  44.875  0.00  0.00    +0.000 HD
ENDBRANCH   1   7
BRANCH   2   9
ATOM      9  O   UNL     1      10.678  13.258  44.511  0.00  0.00    +0.000 OA
ATOM     10  H   UNL     1      10.950  12.344  44.309  0.00  0.00    +0.000 HD
ENDBRANCH   2   9
TORSDOF 2
ENDMDL
MODEL 11
REMARK VINA RESULT:    -3.526      1.468      1.902
REMARK INTER + INTRA:          -3.732
REMARK INTER:                  -3.732
REMARK INTRA:                   0.000
REMARK UNBOUND:                 0.000
REMARK  Name = opt78.pdb
REMARK  2 active torsions:
REMARK  status: ('A' for Active; 'I' for Inactive)
REMARK    1  A    between atoms: O_1  and  C_2
REMARK    2  A    between atoms: C_3  and  O_5
REMARK                            x       y       z     vdW  Elec       q    Type
REMARK                         _______ _______ _______ _____ _____    ______ ____
ROOT
ATOM      1  C   UNL     1      14.434  12.887  43.135  0.00  0.00    +0.000 A 
ATOM      2  C   UNL     1      13.799  12.493  44.316  0.00  0.00    +0.000 A 
ATOM      3  C   UNL     1      14.473  14.236  42.783  0.00  0.00    +0.000 A 
ATOM      4  C   UNL     1      13.183  13.446  45.125  0.00  0.00    +0.000 A 
ATOM      5  C   UNL     1      13.864  15.188  43.598  0.00  0.00    +0.000 A 
ATOM      6  C   UNL     1      13.215  14.793  44.766  0.00  0.00    +0.000 A 
ENDROOT
BRANCH   1   7
ATOM      7  O   UNL     1      14.990  11.959  42.302  0.00  0.00    +0.000 OA
ATOM      8  H   UNL     1      15.544  11.352  42.827  0.00  0.00    +0.000 HD
ENDBRANCH   1   7
BRANCH   2   9
ATOM      9  O   UNL     1      13.805  11.184  44.703  0.00  0.00    +0.000 OA
ATOM     10  H   UNL     1      12.886  10.865  44.761  0.00  0.00    +0.000 HD
ENDBRANCH   2   9
TORSDOF 2
ENDMDL
MODEL 12
REMARK VINA RESULT:    -3.512      1.475      1.745
REMARK INTER + INTRA:          -3.717
REMARK INTER:                  -3.717
REMARK INTRA:                   0.000
REMARK UNBOUND:                 0.000
REMARK  Name = opt78.pdb
REMARK  2 active torsions:
REMARK  status: ('A' for Active; 'I' for Inactive)
REMARK    1  A    between atoms: O_1  and  C_2
REMARK    2  A    between atoms: C_3  and  O_5
REMARK                            x       y       z     vdW  Elec       q    Type
REMARK                         _______ _______ _______ _____ _____    ______ ____
ROOT
ATOM      1  C   UNL     1      13.431  12.797  44.357  0.00  0.00    +0.000 A 
ATOM      2  C   UNL     1      14.325  13.150  43.342  0.00  0.00    +0.000 A 
ATOM      3  C   UNL     1      12.640  13.774  44.959  0.00  0.00    +0.000 A 
ATOM      4  C   UNL     1      14.443  14.483  42.952  0.00  0.00    +0.000 A 
ATOM      5  C   UNL     1      12.753  15.105  44.562  0.00  0.00    +0.000 A 
ATOM      6  C   UNL     1      13.658  15.461  43.562  0.00  0.00    +0.000 A 
ENDROOT
BRANCH   1   7
ATOM      7  O   UNL     1      13.348  11.504  44.789  0.00  0.00    +0.000 OA
ATOM      8  H   UNL     1      14.007  11.360  45.493  0.00  0.00    +0.000 HD
ENDBRANCH   1   7
BRANCH   2   9
ATOM      9  O   UNL     1      15.062  12.195  42.703  0.00  0.00    +0.000 OA
ATOM     10  H   UNL     1      14.563  11.872  41.930  0.00  0.00    +0.000 HD
ENDBRANCH   2   9
TORSDOF 2
ENDMDL
MODEL 13
REMARK VINA RESULT:    -3.469      2.687      3.319
REMARK INTER + INTRA:          -3.672
REMARK INTER:                  -3.672
REMARK INTRA:                   0.000
REMARK UNBOUND:                 0.000
REMARK  Name = opt78.pdb
REMARK  2 active torsions:
REMARK  status: ('A' for Active; 'I' for Inactive)
REMARK    1  A    between atoms: O_1  and  C_2
REMARK    2  A    between atoms: C_3  and  O_5
REMARK                            x       y       z     vdW  Elec       q    Type
REMARK                         _______ _______ _______ _____ _____    ______ ____
ROOT
ATOM      1  C   UNL     1      16.250  14.307  44.052  0.00  0.00    +0.000 A 
ATOM      2  C   UNL     1      15.795  13.750  45.250  0.00  0.00    +0.000 A 
ATOM      3  C   UNL     1      15.342  14.617  43.040  0.00  0.00    +0.000 A 
ATOM      4  C   UNL     1      14.438  13.482  45.421  0.00  0.00    +0.000 A 
ATOM      5  C   UNL     1      13.985  14.356  43.217  0.00  0.00    +0.000 A 
ATOM      6  C   UNL     1      13.533  13.784  44.405  0.00  0.00    +0.000 A 
ENDROOT
BRANCH   1   7
ATOM      7  O   UNL     1      17.583  14.520  43.847  0.00  0.00    +0.000 OA
ATOM      8  H   UNL     1      17.923  15.108  44.547  0.00  0.00    +0.000 HD
ENDBRANCH   1   7
BRANCH   2   9
ATOM      9  O   UNL     1      16.665  13.497  46.272  0.00  0.00    +0.000 OA
ATOM     10  H   UNL     1      16.369  13.975  47.068  0.00  0.00    +0.000 HD
ENDBRANCH   2   9
TORSDOF 2
ENDMDL
MODEL 14
REMARK VINA RESULT:    -3.351      2.911      4.128
REMARK INTER + INTRA:          -3.547
REMARK INTER:                  -3.547
REMARK INTRA:                   0.000
REMARK UNBOUND:                 0.000
REMARK  Name = opt78.pdb
REMARK  2 active torsions:
REMARK  status: ('A' for Active; 'I' for Inactive)
REMARK    1  A    between atoms: O_1  and  C_2
REMARK    2  A    between atoms: C_3  and  O_5
REMARK                            x       y       z     vdW  Elec       q    Type
REMARK                         _______ _______ _______ _____ _____    ______ ____
ROOT
ATOM      1  C   UNL     1      11.413  12.115  41.627  0.00  0.00    +0.000 A 
ATOM      2  C   UNL     1      10.216  12.522  42.223  0.00  0.00    +0.000 A 
ATOM      3  C   UNL     1      12.627  12.350  42.272  0.00  0.00    +0.000 A 
ATOM      4  C   UNL     1      10.240  13.187  43.448  0.00  0.00    +0.000 A 
ATOM      5  C   UNL     1      12.648  13.007  43.501  0.00  0.00    +0.000 A 
ATOM      6  C   UNL     1      11.456  13.430  44.086  0.00  0.00    +0.000 A 
ENDROOT
BRANCH   1   7
ATOM      7  O   UNL     1      11.409  11.515  40.400  0.00  0.00    +0.000 OA
ATOM      8  H   UNL     1      11.781  12.131  39.743  0.00  0.00    +0.000 HD
ENDBRANCH   1   7
BRANCH   2   9
ATOM      9  O   UNL     1       9.018  12.245  41.631  0.00  0.00    +0.000 OA
ATOM     10  H   UNL     1       8.940  12.764  40.810  0.00  0.00    +0.000 HD
ENDBRANCH   2   9
TORSDOF 2
ENDMDL
MODEL 15
REMARK VINA RESULT:    -3.343      1.752      2.235
REMARK INTER + INTRA:          -3.538
REMARK INTER:                  -3.538
REMARK INTRA:                   0.000
REMARK UNBOUND:                 0.000
REMARK  Name = opt78.pdb
REMARK  2 active torsions:
REMARK  status: ('A' for Active; 'I' for Inactive)
REMARK    1  A    between atoms: O_1  and  C_2
REMARK    2  A    between atoms: C_3  and  O_5
REMARK                            x       y       z     vdW  Elec       q    Type
REMARK                         _______ _______ _______ _____ _____    ______ ____
ROOT
ATOM      1  C   UNL     1      14.634  12.945  43.120  0.00  0.00    +0.000 A 
ATOM      2  C   UNL     1      14.287  12.871  44.472  0.00  0.00    +0.000 A 
ATOM      3  C   UNL     1      15.817  13.576  42.740  0.00  0.00    +0.000 A 
ATOM      4  C   UNL     1      15.110  13.453  45.435  0.00  0.00    +0.000 A 
ATOM      5  C   UNL     1      16.644  14.149  43.704  0.00  0.00    +0.000 A 
ATOM      6  C   UNL     1      16.288  14.092  45.051  0.00  0.00    +0.000 A 
ENDROOT
BRANCH   1   7
ATOM      7  O   UNL     1      13.807  12.432  42.162  0.00  0.00    +0.000 OA
ATOM      8  H   UNL     1      14.344  11.967  41.494  0.00  0.00    +0.000 HD
ENDBRANCH   1   7
BRANCH   2   9
ATOM      9  O   UNL     1      13.161  12.204  44.864  0.00  0.00    +0.000 OA
ATOM     10  H   UNL     1      13.161  11.316  44.462  0.00  0.00    +0.000 HD
ENDBRANCH   2   9
TORSDOF 2
ENDMDL
MODEL 16
REMARK VINA RESULT:    -3.339      1.447      2.580
REMARK INTER + INTRA:          -3.534
REMARK INTER:                  -3.534
REMARK INTRA:                   0.000
REMARK UNBOUND:                 0.000
REMARK  Name = opt78.pdb
REMARK  2 active torsions:
REMARK  status: ('A' for Active; 'I' for Inactive)
REMARK    1  A    between atoms: O_1  and  C_2
REMARK    2  A    between atoms: C_3  and  O_5
REMARK                            x       y       z     vdW  Elec       q    Type
REMARK                         _______ _______ _______ _____ _____    ______ ____
ROOT
ATOM      1  C   UNL     1      14.603  13.670  44.494  0.00  0.00    +0.000 A 
ATOM      2  C   UNL     1      13.442  12.893  44.505  0.00  0.00    +0.000 A 
ATOM      3  C   UNL     1      14.509  15.061  44.521  0.00  0.00    +0.000 A 
ATOM      4  C   UNL     1      12.192  13.510  44.515  0.00  0.00    +0.000 A 
ATOM      5  C   UNL     1      13.259  15.676  44.540  0.00  0.00    +0.000 A 
ATOM      6  C   UNL     1      12.100  14.901  44.532  0.00  0.00    +0.000 A 
ENDROOT
BRANCH   1   7
ATOM      7  O   UNL     1      15.833  13.080  44.425  0.00  0.00    +0.000 OA
ATOM      8  H   UNL     1      15.761  12.252  43.917  0.00  0.00    +0.000 HD
ENDBRANCH   1   7
BRANCH   2   9
ATOM      9  O   UNL     1      13.519  11.530  44.540  0.00  0.00    +0.000 OA
ATOM     10  H   UNL     1      13.837  11.252  45.418  0.00  0.00    +0.000 HD
ENDBRANCH   2   9
TORSDOF 2
ENDMDL
MODEL 17
REMARK VINA RESULT:    -3.336      2.888      3.663
REMARK INTER + INTRA:          -3.532
REMARK INTER:                  -3.532
REMARK INTRA:                   0.000
REMARK UNBOUND:                 0.000
REMARK  Name = opt78.pdb
REMARK  2 active torsions:
REMARK  status: ('A' for Active; 'I' for Inactive)
REMARK    1  A    between atoms: O_1  and  C_2
REMARK    2  A    between atoms: C_3  and  O_5
REMARK                            x       y       z     vdW  Elec       q    Type
REMARK                         _______ _______ _______ _____ _____    ______ ____
ROOT
ATOM      1  C   UNL     1      10.190  12.605  42.225  0.00  0.00    +0.000 A 
ATOM      2  C   UNL     1      11.405  12.165  41.693  0.00  0.00    +0.000 A 
ATOM      3  C   UNL     1      10.171  13.306  43.430  0.00  0.00    +0.000 A 
ATOM      4  C   UNL     1      12.593  12.404  42.382  0.00  0.00    +0.000 A 
ATOM      5  C   UNL     1      11.361  13.551  44.114  0.00  0.00    +0.000 A 
ATOM      6  C   UNL     1      12.571  13.096  43.592  0.00  0.00    +0.000 A 
ENDROOT
BRANCH   1   7
ATOM      7  O   UNL     1       9.013  12.326  41.591  0.00  0.00    +0.000 OA
ATOM      8  H   UNL     1       8.490  11.716  42.142  0.00  0.00    +0.000 HD
ENDBRANCH   1   7
BRANCH   2   9
ATOM      9  O   UNL     1      11.445  11.531  40.485  0.00  0.00    +0.000 OA
ATOM     10  H   UNL     1      11.751  10.615  40.616  0.00  0.00    +0.000 HD
ENDBRANCH   2   9
TORSDOF 2
ENDMDL
MODEL 18
REMARK VINA RESULT:    -3.224      1.624      2.183
REMARK INTER + INTRA:          -3.413
REMARK INTER:                  -3.413
REMARK INTRA:                   0.000
REMARK UNBOUND:                 0.000
REMARK  Name = opt78.pdb
REMARK  2 active torsions:
REMARK  status: ('A' for Active; 'I' for Inactive)
REMARK    1  A    between atoms: O_1  and  C_2
REMARK    2  A    between atoms: C_3  and  O_5
REMARK                            x       y       z     vdW  Elec       q    Type
REMARK                         _______ _______ _______ _____ _____    ______ ____
ROOT
ATOM      1  C   UNL     1      14.228  12.763  44.380  0.00  0.00    +0.000 A 
ATOM      2  C   UNL     1      14.406  13.081  43.031  0.00  0.00    +0.000 A 
ATOM      3  C   UNL     1      14.896  13.496  45.361  0.00  0.00    +0.000 A 
ATOM      4  C   UNL     1      15.272  14.111  42.667  0.00  0.00    +0.000 A 
ATOM      5  C   UNL     1      15.754  14.531  44.995  0.00  0.00    +0.000 A 
ATOM      6  C   UNL     1      15.946  14.836  43.649  0.00  0.00    +0.000 A 
ENDROOT
BRANCH   1   7
ATOM      7  O   UNL     1      13.429  11.719  44.748  0.00  0.00    +0.000 OA
ATOM      8  H   UNL     1      13.215  11.800  45.696  0.00  0.00    +0.000 HD
ENDBRANCH   1   7
BRANCH   2   9
ATOM      9  O   UNL     1      13.712  12.412  42.064  0.00  0.00    +0.000 OA
ATOM     10  H   UNL     1      12.762  12.436  42.278  0.00  0.00    +0.000 HD
ENDBRANCH   2   9
TORSDOF 2
ENDMDL
MODEL 19
REMARK VINA RESULT:    -3.198      2.099      2.999
REMARK INTER + INTRA:          -3.385
REMARK INTER:                  -3.385
REMARK INTRA:                   0.000
REMARK UNBOUND:                 0.000
REMARK  Name = opt78.pdb
REMARK  2 active torsions:
REMARK  status: ('A' for Active; 'I' for Inactive)
REMARK    1  A    between atoms: O_1  and  C_2
REMARK    2  A    between atoms: C_3  and  O_5
REMARK                            x       y       z     vdW  Elec       q    Type
REMARK                         _______ _______ _______ _____ _____    ______ ____
ROOT
ATOM      1  C   UNL     1      12.634  13.626  44.583  0.00  0.00    +0.000 A 
ATOM      2  C   UNL     1      13.030  14.966  44.635  0.00  0.00    +0.000 A 
ATOM      3  C   UNL     1      13.594  12.616  44.617  0.00  0.00    +0.000 A 
ATOM      4  C   UNL     1      14.385  15.289  44.692  0.00  0.00    +0.000 A 
ATOM      5  C   UNL     1      14.948  12.941  44.683  0.00  0.00    +0.000 A 
ATOM      6  C   UNL     1      15.343  14.277  44.716  0.00  0.00    +0.000 A 
ENDROOT
BRANCH   1   7
ATOM      7  O   UNL     1      11.314  13.296  44.467  0.00  0.00    +0.000 OA
ATOM      8  H   UNL     1      11.238  12.454  43.983  0.00  0.00    +0.000 HD
ENDBRANCH   1   7
BRANCH   2   9
ATOM      9  O   UNL     1      12.098  15.963  44.663  0.00  0.00    +0.000 OA
ATOM     10  H   UNL     1      11.219  15.583  44.486  0.00  0.00    +0.000 HD
ENDBRANCH   2   9
TORSDOF 2
ENDMDL
