MODEL 1
REMARK VINA RESULT:    -6.283      0.000      0.000
REMARK INTER + INTRA:         -13.679
REMARK INTER:                 -10.323
REMARK INTRA:                  -3.356
REMARK UNBOUND:                -3.356
REMARK  Name = opt41.pdb
REMARK  17 active torsions:
REMARK  status: ('A' for Active; 'I' for Inactive)
REMARK    1  A    between atoms: C_3  and  O_5
REMARK    2  A    between atoms: O_5  and  C_9
REMARK    3  A    between atoms: C_6  and  C_11
REMARK    4  A    between atoms: C_8  and  O_13
REMARK    5  A    between atoms: C_16  and  O_21
REMARK    6  A    between atoms: C_19  and  O_25
REMARK    7  A    between atoms: C_20  and  C_27
REMARK    8  A    between atoms: C_22  and  O_28
REMARK    9  A    between atoms: C_23  and  O_29
REMARK   10  A    between atoms: C_26  and  O_31
REMARK   11  A    between atoms: C_27  and  O_32
REMARK   12  A    between atoms: C_30  and  O_33
REMARK   13  A    between atoms: O_32  and  C_34
REMARK   14  A    between atoms: C_36  and  O_38
REMARK   15  A    between atoms: C_37  and  C_41
REMARK   16  A    between atoms: C_39  and  O_42
REMARK   17  A    between atoms: C_40  and  O_43
REMARK                            x       y       z     vdW  Elec       q    Type
REMARK                         _______ _______ _______ _____ _____    ______ ____
ROOT
ATOM      1  C   UNL     1      11.045  17.703  43.571  0.00  0.00    +0.000 C 
ATOM      2  O   UNL     1      12.307  17.365  44.190  0.00  0.00    +0.000 OA
ATOM      3  C   UNL     1      11.222  19.117  43.033  0.00  0.00    +0.000 C 
ATOM      4  C   UNL     1      13.415  17.132  43.298  0.00  0.00    +0.000 C 
ATOM      5  C   UNL     1      12.288  19.068  41.944  0.00  0.00    +0.000 C 
ATOM      6  C   UNL     1      13.615  18.367  42.363  0.00  0.00    +0.000 C 
ENDROOT
BRANCH   3   7
ATOM      7  O   UNL     1      11.597  20.014  44.109  0.00  0.00    +0.000 OA
ATOM      8  H   UNL     1      12.517  19.856  44.423  0.00  0.00    +0.000 HD
ENDBRANCH   3   7
BRANCH   5   9
ATOM      9  O   UNL     1      12.547  20.407  41.568  0.00  0.00    +0.000 OA
ATOM     10  H   UNL     1      12.298  20.433  40.651  0.00  0.00    +0.000 HD
ENDBRANCH   5   9
BRANCH   6  11
ATOM     11  O   UNL     1      14.241  17.944  41.142  0.00  0.00    +0.000 OA
ATOM     12  H   UNL     1      13.619  18.066  40.394  0.00  0.00    +0.000 HD
ENDBRANCH   6  11
BRANCH   1  13
ATOM     13  O   UNL     1      10.668  16.687  42.568  0.00  0.00    +0.000 OA
BRANCH  13  16
ATOM     14  O   UNL     1       7.782  16.772  42.933  0.00  0.00    +0.000 OA
ATOM     15  C   UNL     1       8.440  15.779  43.178  0.00  0.00    +0.000 A 
ATOM     16  C   UNL     1       9.919  15.556  42.935  0.00  0.00    +0.000 A 
ATOM     17  C   UNL     1       7.754  14.607  43.675  0.00  0.00    +0.000 A 
ATOM     18  C   UNL     1      10.413  14.523  43.119  0.00  0.00    +0.000 A 
ATOM     19  C   UNL     1       8.447  13.440  43.536  0.00  0.00    +0.000 A 
ATOM     20  C   UNL     1       6.376  14.588  44.092  0.00  0.00    +0.000 A 
ATOM     21  O   UNL     1       9.738  13.611  43.028  0.00  0.00    +0.000 OA
ATOM     22  C   UNL     1       7.654  12.230  43.380  0.00  0.00    +0.000 A 
ATOM     23  C   UNL     1       5.641  13.420  44.023  0.00  0.00    +0.000 A 
ATOM     24  C   UNL     1       6.267  12.247  43.624  0.00  0.00    +0.000 A 
BRANCH  18  25
ATOM     25  C   UNL     1      11.760  13.893  43.568  0.00  0.00    +0.000 A 
ATOM     26  C   UNL     1      12.668  13.308  42.639  0.00  0.00    +0.000 A 
ATOM     27  C   UNL     1      12.186  13.875  44.928  0.00  0.00    +0.000 A 
ATOM     28  C   UNL     1      13.918  12.791  43.043  0.00  0.00    +0.000 A 
ATOM     29  C   UNL     1      13.415  13.342  45.318  0.00  0.00    +0.000 A 
ATOM     30  C   UNL     1      14.297  12.812  44.383  0.00  0.00    +0.000 A 
BRANCH  28  31
ATOM     31  O   UNL     1      14.840  12.294  42.158  0.00  0.00    +0.000 OA
ATOM     32  H   UNL     1      14.485  12.153  41.269  0.00  0.00    +0.000 HD
ENDBRANCH  28  31
BRANCH  30  33
ATOM     33  O   UNL     1      15.515  12.309  44.790  0.00  0.00    +0.000 OA
ATOM     34  H   UNL     1      15.434  11.460  45.294  0.00  0.00    +0.000 HD
ENDBRANCH  30  33
ENDBRANCH  18  25
BRANCH  20  35
ATOM     35  O   UNL     1       5.819  15.748  44.545  0.00  0.00    +0.000 OA
ATOM     36  H   UNL     1       6.563  16.347  44.794  0.00  0.00    +0.000 HD
ENDBRANCH  20  35
BRANCH  24  37
ATOM     37  O   UNL     1       5.471  11.147  43.505  0.00  0.00    +0.000 OA
ATOM     38  H   UNL     1       5.307  10.722  44.352  0.00  0.00    +0.000 HD
ENDBRANCH  24  37
ENDBRANCH  13  16
ENDBRANCH   1  13
BRANCH   4  39
ATOM     39  C   UNL     1      14.600  16.826  44.250  0.00  0.00    +0.000 C 
BRANCH  39  40
ATOM     40  O   UNL     1      15.878  16.980  43.590  0.00  0.00    +0.000 OA
BRANCH  40  41
ATOM     41  C   UNL     1      16.274  15.874  42.758  0.00  0.00    +0.000 C 
ATOM     42  O   UNL     1      16.795  16.300  41.472  0.00  0.00    +0.000 OA
ATOM     43  C   UNL     1      17.304  15.012  43.509  0.00  0.00    +0.000 C 
ATOM     44  C   UNL     1      18.074  16.987  41.460  0.00  0.00    +0.000 C 
ATOM     45  C   UNL     1      18.700  15.676  43.534  0.00  0.00    +0.000 C 
ATOM     46  C   UNL     1      19.144  16.077  42.108  0.00  0.00    +0.000 C 
ATOM     47  C   UNL     1      18.408  17.286  39.985  0.00  0.00    +0.000 C 
BRANCH  45  48
ATOM     48  O   UNL     1      19.623  14.730  44.074  0.00  0.00    +0.000 OA
ATOM     49  H   UNL     1      19.202  13.854  43.951  0.00  0.00    +0.000 HD
ENDBRANCH  45  48
BRANCH  46  50
ATOM     50  O   UNL     1      20.408  16.756  42.138  0.00  0.00    +0.000 OA
ATOM     51  H   UNL     1      20.974  16.430  41.416  0.00  0.00    +0.000 HD
ENDBRANCH  46  50
BRANCH  43  52
ATOM     52  O   UNL     1      17.366  13.773  42.811  0.00  0.00    +0.000 OA
ATOM     53  H   UNL     1      16.511  13.714  42.348  0.00  0.00    +0.000 HD
ENDBRANCH  43  52
ENDBRANCH  40  41
ENDBRANCH  39  40
ENDBRANCH   4  39
TORSDOF 16
ENDMDL
MODEL 2
REMARK VINA RESULT:    -6.225      2.335      5.646
REMARK INTER + INTRA:         -13.583
REMARK INTER:                 -10.765
REMARK INTRA:                  -2.819
REMARK UNBOUND:                -3.356
REMARK  Name = opt41.pdb
REMARK  17 active torsions:
REMARK  status: ('A' for Active; 'I' for Inactive)
REMARK    1  A    between atoms: C_3  and  O_5
REMARK    2  A    between atoms: O_5  and  C_9
REMARK    3  A    between atoms: C_6  and  C_11
REMARK    4  A    between atoms: C_8  and  O_13
REMARK    5  A    between atoms: C_16  and  O_21
REMARK    6  A    between atoms: C_19  and  O_25
REMARK    7  A    between atoms: C_20  and  C_27
REMARK    8  A    between atoms: C_22  and  O_28
REMARK    9  A    between atoms: C_23  and  O_29
REMARK   10  A    between atoms: C_26  and  O_31
REMARK   11  A    between atoms: C_27  and  O_32
REMARK   12  A    between atoms: C_30  and  O_33
REMARK   13  A    between atoms: O_32  and  C_34
REMARK   14  A    between atoms: C_36  and  O_38
REMARK   15  A    between atoms: C_37  and  C_41
REMARK   16  A    between atoms: C_39  and  O_42
REMARK   17  A    between atoms: C_40  and  O_43
REMARK                            x       y       z     vdW  Elec       q    Type
REMARK                         _______ _______ _______ _____ _____    ______ ____
ROOT
ATOM      1  C   UNL     1      13.897  14.214  43.160  0.00  0.00    +0.000 C 
ATOM      2  O   UNL     1      15.179  14.880  43.117  0.00  0.00    +0.000 OA
ATOM      3  C   UNL     1      14.214  12.725  43.230  0.00  0.00    +0.000 C 
ATOM      4  C   UNL     1      15.948  14.868  44.337  0.00  0.00    +0.000 C 
ATOM      5  C   UNL     1      14.930  12.465  44.550  0.00  0.00    +0.000 C 
ATOM      6  C   UNL     1      16.148  13.398  44.826  0.00  0.00    +0.000 C 
ENDROOT
BRANCH   3   7
ATOM      7  O   UNL     1      15.030  12.339  42.094  0.00  0.00    +0.000 OA
ATOM      8  H   UNL     1      14.693  12.712  41.248  0.00  0.00    +0.000 HD
ENDBRANCH   3   7
BRANCH   5   9
ATOM      9  O   UNL     1      15.352  11.115  44.526  0.00  0.00    +0.000 OA
ATOM     10  H   UNL     1      14.543  10.631  44.406  0.00  0.00    +0.000 HD
ENDBRANCH   5   9
BRANCH   6  11
ATOM     11  O   UNL     1      16.338  13.390  46.248  0.00  0.00    +0.000 OA
ATOM     12  H   UNL     1      17.260  13.131  46.456  0.00  0.00    +0.000 HD
ENDBRANCH   6  11
BRANCH   1  13
ATOM     13  O   UNL     1      13.074  14.737  44.270  0.00  0.00    +0.000 OA
BRANCH  13  16
ATOM     14  O   UNL     1      10.809  12.930  44.005  0.00  0.00    +0.000 OA
ATOM     15  C   UNL     1      10.708  14.130  43.833  0.00  0.00    +0.000 A 
ATOM     16  C   UNL     1      11.766  15.195  44.041  0.00  0.00    +0.000 A 
ATOM     17  C   UNL     1       9.412  14.665  43.478  0.00  0.00    +0.000 A 
ATOM     18  C   UNL     1      11.517  16.323  43.941  0.00  0.00    +0.000 A 
ATOM     19  C   UNL     1       9.268  16.003  43.702  0.00  0.00    +0.000 A 
ATOM     20  C   UNL     1       8.274  13.863  43.116  0.00  0.00    +0.000 A 
ATOM     21  O   UNL     1      10.439  16.628  44.144  0.00  0.00    +0.000 OA
ATOM     22  C   UNL     1       7.923  16.468  44.004  0.00  0.00    +0.000 A 
ATOM     23  C   UNL     1       6.992  14.335  43.324  0.00  0.00    +0.000 A 
ATOM     24  C   UNL     1       6.814  15.623  43.811  0.00  0.00    +0.000 A 
BRANCH  18  25
ATOM     25  C   UNL     1      12.162  17.667  43.505  0.00  0.00    +0.000 A 
ATOM     26  C   UNL     1      11.942  18.879  44.221  0.00  0.00    +0.000 A 
ATOM     27  C   UNL     1      13.029  17.775  42.379  0.00  0.00    +0.000 A 
ATOM     28  C   UNL     1      12.579  20.085  43.858  0.00  0.00    +0.000 A 
ATOM     29  C   UNL     1      13.636  18.978  42.018  0.00  0.00    +0.000 A 
ATOM     30  C   UNL     1      13.432  20.137  42.759  0.00  0.00    +0.000 A 
BRANCH  28  31
ATOM     31  O   UNL     1      12.443  21.245  44.578  0.00  0.00    +0.000 OA
ATOM     32  H   UNL     1      13.001  21.967  44.256  0.00  0.00    +0.000 HD
ENDBRANCH  28  31
BRANCH  30  33
ATOM     33  O   UNL     1      14.060  21.309  42.394  0.00  0.00    +0.000 OA
ATOM     34  H   UNL     1      13.948  21.524  41.433  0.00  0.00    +0.000 HD
ENDBRANCH  30  33
ENDBRANCH  18  25
BRANCH  20  35
ATOM     35  O   UNL     1       8.493  12.631  42.573  0.00  0.00    +0.000 OA
ATOM     36  H   UNL     1       9.393  12.650  42.167  0.00  0.00    +0.000 HD
ENDBRANCH  20  35
BRANCH  24  37
ATOM     37  O   UNL     1       5.528  16.000  44.065  0.00  0.00    +0.000 OA
ATOM     38  H   UNL     1       5.370  16.924  43.846  0.00  0.00    +0.000 HD
ENDBRANCH  24  37
ENDBRANCH  13  16
ENDBRANCH   1  13
BRANCH   4  39
ATOM     39  C   UNL     1      17.250  15.622  43.963  0.00  0.00    +0.000 C 
BRANCH  39  40
ATOM     40  O   UNL     1      17.225  16.997  44.408  0.00  0.00    +0.000 OA
BRANCH  40  41
ATOM     41  C   UNL     1      16.449  17.242  45.596  0.00  0.00    +0.000 C 
ATOM     42  O   UNL     1      17.274  17.415  46.777  0.00  0.00    +0.000 OA
ATOM     43  C   UNL     1      15.547  18.468  45.374  0.00  0.00    +0.000 C 
ATOM     44  C   UNL     1      18.089  18.613  46.859  0.00  0.00    +0.000 C 
ATOM     45  C   UNL     1      16.344  19.791  45.452  0.00  0.00    +0.000 C 
ATOM     46  C   UNL     1      17.174  19.856  46.755  0.00  0.00    +0.000 C 
ATOM     47  C   UNL     1      18.822  18.566  48.214  0.00  0.00    +0.000 C 
BRANCH  45  48
ATOM     48  O   UNL     1      15.406  20.868  45.429  0.00  0.00    +0.000 OA
ATOM     49  H   UNL     1      15.625  21.387  44.627  0.00  0.00    +0.000 HD
ENDBRANCH  45  48
BRANCH  46  50
ATOM     50  O   UNL     1      17.969  21.050  46.797  0.00  0.00    +0.000 OA
ATOM     51  H   UNL     1      17.771  21.550  47.608  0.00  0.00    +0.000 HD
ENDBRANCH  46  50
BRANCH  43  52
ATOM     52  O   UNL     1      14.565  18.429  46.405  0.00  0.00    +0.000 OA
ATOM     53  H   UNL     1      14.935  18.989  47.110  0.00  0.00    +0.000 HD
ENDBRANCH  43  52
ENDBRANCH  40  41
ENDBRANCH  39  40
ENDBRANCH   4  39
TORSDOF 16
ENDMDL
MODEL 3
REMARK VINA RESULT:    -6.202      1.218      1.303
REMARK INTER + INTRA:         -13.546
REMARK INTER:                 -10.616
REMARK INTRA:                  -2.930
REMARK UNBOUND:                -3.356
REMARK  Name = opt41.pdb
REMARK  17 active torsions:
REMARK  status: ('A' for Active; 'I' for Inactive)
REMARK    1  A    between atoms: C_3  and  O_5
REMARK    2  A    between atoms: O_5  and  C_9
REMARK    3  A    between atoms: C_6  and  C_11
REMARK    4  A    between atoms: C_8  and  O_13
REMARK    5  A    between atoms: C_16  and  O_21
REMARK    6  A    between atoms: C_19  and  O_25
REMARK    7  A    between atoms: C_20  and  C_27
REMARK    8  A    between atoms: C_22  and  O_28
REMARK    9  A    between atoms: C_23  and  O_29
REMARK   10  A    between atoms: C_26  and  O_31
REMARK   11  A    between atoms: C_27  and  O_32
REMARK   12  A    between atoms: C_30  and  O_33
REMARK   13  A    between atoms: O_32  and  C_34
REMARK   14  A    between atoms: C_36  and  O_38
REMARK   15  A    between atoms: C_37  and  C_41
REMARK   16  A    between atoms: C_39  and  O_42
REMARK   17  A    between atoms: C_40  and  O_43
REMARK                            x       y       z     vdW  Elec       q    Type
REMARK                         _______ _______ _______ _____ _____    ______ ____
ROOT
ATOM      1  C   UNL     1      10.470  17.143  43.215  0.00  0.00    +0.000 C 
ATOM      2  O   UNL     1      11.762  16.939  43.829  0.00  0.00    +0.000 OA
ATOM      3  C   UNL     1      10.515  18.550  42.631  0.00  0.00    +0.000 C 
ATOM      4  C   UNL     1      12.878  16.775  42.931  0.00  0.00    +0.000 C 
ATOM      5  C   UNL     1      11.572  18.560  41.531  0.00  0.00    +0.000 C 
ATOM      6  C   UNL     1      12.960  17.992  41.955  0.00  0.00    +0.000 C 
ENDROOT
BRANCH   3   7
ATOM      7  O   UNL     1      10.820  19.510  43.674  0.00  0.00    +0.000 OA
ATOM      8  H   UNL     1      10.937  19.082  44.553  0.00  0.00    +0.000 HD
ENDBRANCH   3   7
BRANCH   5   9
ATOM      9  O   UNL     1      11.708  19.903  41.110  0.00  0.00    +0.000 OA
ATOM     10  H   UNL     1      12.480  19.885  40.555  0.00  0.00    +0.000 HD
ENDBRANCH   5   9
BRANCH   6  11
ATOM     11  O   UNL     1      13.609  17.587  40.742  0.00  0.00    +0.000 OA
ATOM     12  H   UNL     1      14.574  17.506  40.895  0.00  0.00    +0.000 HD
ENDBRANCH   6  11
BRANCH   1  13
ATOM     13  O   UNL     1      10.175  16.066  42.249  0.00  0.00    +0.000 OA
BRANCH  13  16
ATOM     14  O   UNL     1       7.306  15.811  42.666  0.00  0.00    +0.000 OA
ATOM     15  C   UNL     1       8.085  14.916  42.932  0.00  0.00    +0.000 A 
ATOM     16  C   UNL     1       9.576  14.866  42.669  0.00  0.00    +0.000 A 
ATOM     17  C   UNL     1       7.555  13.687  43.482  0.00  0.00    +0.000 A 
ATOM     18  C   UNL     1      10.196  13.909  42.879  0.00  0.00    +0.000 A 
ATOM     19  C   UNL     1       8.384  12.610  43.371  0.00  0.00    +0.000 A 
ATOM     20  C   UNL     1       6.197  13.515  43.926  0.00  0.00    +0.000 A 
ATOM     21  O   UNL     1       9.637  12.918  42.832  0.00  0.00    +0.000 OA
ATOM     22  C   UNL     1       7.744  11.306  43.272  0.00  0.00    +0.000 A 
ATOM     23  C   UNL     1       5.610  12.265  43.912  0.00  0.00    +0.000 A 
ATOM     24  C   UNL     1       6.369  11.163  43.541  0.00  0.00    +0.000 A 
BRANCH  18  25
ATOM     25  C   UNL     1      11.616  13.465  43.324  0.00  0.00    +0.000 A 
ATOM     26  C   UNL     1      12.577  12.963  42.398  0.00  0.00    +0.000 A 
ATOM     27  C   UNL     1      12.061  13.548  44.675  0.00  0.00    +0.000 A 
ATOM     28  C   UNL     1      13.886  12.618  42.796  0.00  0.00    +0.000 A 
ATOM     29  C   UNL     1      13.352  13.183  45.060  0.00  0.00    +0.000 A 
ATOM     30  C   UNL     1      14.278  12.733  44.127  0.00  0.00    +0.000 A 
BRANCH  28  31
ATOM     31  O   UNL     1      14.850  12.207  41.911  0.00  0.00    +0.000 OA
ATOM     32  H   UNL     1      15.748  12.253  42.268  0.00  0.00    +0.000 HD
ENDBRANCH  28  31
BRANCH  30  33
ATOM     33  O   UNL     1      15.555  12.398  44.529  0.00  0.00    +0.000 OA
ATOM     34  H   UNL     1      16.149  13.185  44.625  0.00  0.00    +0.000 HD
ENDBRANCH  30  33
ENDBRANCH  18  25
BRANCH  20  35
ATOM     35  O   UNL     1       5.507  14.614  44.349  0.00  0.00    +0.000 OA
ATOM     36  H   UNL     1       5.714  15.345  43.718  0.00  0.00    +0.000 HD
ENDBRANCH  20  35
BRANCH  24  37
ATOM     37  O   UNL     1       5.712   9.970  43.475  0.00  0.00    +0.000 OA
ATOM     38  H   UNL     1       5.850   9.525  42.634  0.00  0.00    +0.000 HD
ENDBRANCH  24  37
ENDBRANCH  13  16
ENDBRANCH   1  13
BRANCH   4  39
ATOM     39  C   UNL     1      14.094  16.606  43.878  0.00  0.00    +0.000 C 
BRANCH  39  40
ATOM     40  O   UNL     1      15.257  17.320  43.398  0.00  0.00    +0.000 OA
BRANCH  40  41
ATOM     41  C   UNL     1      16.248  16.505  42.744  0.00  0.00    +0.000 C 
ATOM     42  O   UNL     1      17.493  17.216  42.516  0.00  0.00    +0.000 OA
ATOM     43  C   UNL     1      16.489  15.230  43.570  0.00  0.00    +0.000 C 
ATOM     44  C   UNL     1      18.294  17.558  43.677  0.00  0.00    +0.000 C 
ATOM     45  C   UNL     1      17.345  15.512  44.827  0.00  0.00    +0.000 C 
ATOM     46  C   UNL     1      18.642  16.264  44.451  0.00  0.00    +0.000 C 
ATOM     47  C   UNL     1      19.564  18.259  43.156  0.00  0.00    +0.000 C 
BRANCH  45  48
ATOM     48  O   UNL     1      17.676  14.255  45.420  0.00  0.00    +0.000 OA
ATOM     49  H   UNL     1      17.600  14.394  46.387  0.00  0.00    +0.000 HD
ENDBRANCH  45  48
BRANCH  46  50
ATOM     50  O   UNL     1      19.403  16.588  45.624  0.00  0.00    +0.000 OA
ATOM     51  H   UNL     1      20.324  16.295  45.510  0.00  0.00    +0.000 HD
ENDBRANCH  46  50
BRANCH  43  52
ATOM     52  O   UNL     1      17.170  14.324  42.709  0.00  0.00    +0.000 OA
ATOM     53  H   UNL     1      16.548  13.583  42.598  0.00  0.00    +0.000 HD
ENDBRANCH  43  52
ENDBRANCH  40  41
ENDBRANCH  39  40
ENDBRANCH   4  39
TORSDOF 16
ENDMDL
MODEL 4
REMARK VINA RESULT:    -6.162      3.050      8.209
REMARK INTER + INTRA:         -13.481
REMARK INTER:                 -11.162
REMARK INTRA:                  -2.319
REMARK UNBOUND:                -3.356
REMARK  Name = opt41.pdb
REMARK  17 active torsions:
REMARK  status: ('A' for Active; 'I' for Inactive)
REMARK    1  A    between atoms: C_3  and  O_5
REMARK    2  A    between atoms: O_5  and  C_9
REMARK    3  A    between atoms: C_6  and  C_11
REMARK    4  A    between atoms: C_8  and  O_13
REMARK    5  A    between atoms: C_16  and  O_21
REMARK    6  A    between atoms: C_19  and  O_25
REMARK    7  A    between atoms: C_20  and  C_27
REMARK    8  A    between atoms: C_22  and  O_28
REMARK    9  A    between atoms: C_23  and  O_29
REMARK   10  A    between atoms: C_26  and  O_31
REMARK   11  A    between atoms: C_27  and  O_32
REMARK   12  A    between atoms: C_30  and  O_33
REMARK   13  A    between atoms: O_32  and  C_34
REMARK   14  A    between atoms: C_36  and  O_38
REMARK   15  A    between atoms: C_37  and  C_41
REMARK   16  A    between atoms: C_39  and  O_42
REMARK   17  A    between atoms: C_40  and  O_43
REMARK                            x       y       z     vdW  Elec       q    Type
REMARK                         _______ _______ _______ _____ _____    ______ ____
ROOT
ATOM      1  C   UNL     1       8.083  14.536  43.849  0.00  0.00    +0.000 C 
ATOM      2  O   UNL     1       7.011  14.981  42.988  0.00  0.00    +0.000 OA
ATOM      3  C   UNL     1       7.647  13.173  44.370  0.00  0.00    +0.000 C 
ATOM      4  C   UNL     1       6.873  14.290  41.730  0.00  0.00    +0.000 C 
ATOM      5  C   UNL     1       7.569  12.224  43.179  0.00  0.00    +0.000 C 
ATOM      6  C   UNL     1       6.730  12.755  41.978  0.00  0.00    +0.000 C 
ENDROOT
BRANCH   3   7
ATOM      7  O   UNL     1       6.370  13.287  45.047  0.00  0.00    +0.000 OA
ATOM      8  H   UNL     1       6.454  13.195  46.024  0.00  0.00    +0.000 HD
ENDBRANCH   3   7
BRANCH   5   9
ATOM      9  O   UNL     1       7.016  11.014  43.657  0.00  0.00    +0.000 OA
ATOM     10  H   UNL     1       6.078  11.160  43.601  0.00  0.00    +0.000 HD
ENDBRANCH   5   9
BRANCH   6  11
ATOM     11  O   UNL     1       7.195  12.040  40.824  0.00  0.00    +0.000 OA
ATOM     12  H   UNL     1       7.996  12.478  40.466  0.00  0.00    +0.000 HD
ENDBRANCH   6  11
BRANCH   1  13
ATOM     13  O   UNL     1       9.373  14.555  43.129  0.00  0.00    +0.000 OA
BRANCH  13  16
ATOM     14  O   UNL     1       9.103  17.409  42.627  0.00  0.00    +0.000 OA
ATOM     15  C   UNL     1      10.128  16.918  43.061  0.00  0.00    +0.000 A 
ATOM     16  C   UNL     1      10.374  15.480  43.470  0.00  0.00    +0.000 A 
ATOM     17  C   UNL     1      11.249  17.793  43.326  0.00  0.00    +0.000 A 
ATOM     18  C   UNL     1      11.370  15.154  43.967  0.00  0.00    +0.000 A 
ATOM     19  C   UNL     1      12.187  17.276  44.172  0.00  0.00    +0.000 A 
ATOM     20  C   UNL     1      11.313  19.175  42.928  0.00  0.00    +0.000 A 
ATOM     21  O   UNL     1      11.936  15.953  44.548  0.00  0.00    +0.000 OA
ATOM     22  C   UNL     1      12.931  18.234  44.977  0.00  0.00    +0.000 A 
ATOM     23  C   UNL     1      12.084  20.072  43.640  0.00  0.00    +0.000 A 
ATOM     24  C   UNL     1      12.861  19.612  44.695  0.00  0.00    +0.000 A 
BRANCH  18  25
ATOM     25  C   UNL     1      12.332  13.938  44.058  0.00  0.00    +0.000 A 
ATOM     26  C   UNL     1      13.624  14.039  44.650  0.00  0.00    +0.000 A 
ATOM     27  C   UNL     1      11.982  12.642  43.579  0.00  0.00    +0.000 A 
ATOM     28  C   UNL     1      14.471  12.917  44.786  0.00  0.00    +0.000 A 
ATOM     29  C   UNL     1      12.837  11.546  43.701  0.00  0.00    +0.000 A 
ATOM     30  C   UNL     1      14.077  11.667  44.317  0.00  0.00    +0.000 A 
BRANCH  28  31
ATOM     31  O   UNL     1      15.686  12.974  45.420  0.00  0.00    +0.000 OA
ATOM     32  H   UNL     1      16.224  13.734  45.157  0.00  0.00    +0.000 HD
ENDBRANCH  28  31
BRANCH  30  33
ATOM     33  O   UNL     1      14.896  10.564  44.443  0.00  0.00    +0.000 OA
ATOM     34  H   UNL     1      14.758   9.896  43.724  0.00  0.00    +0.000 HD
ENDBRANCH  30  33
ENDBRANCH  18  25
BRANCH  20  35
ATOM     35  O   UNL     1      10.589  19.572  41.842  0.00  0.00    +0.000 OA
ATOM     36  H   UNL     1      10.851  18.987  41.091  0.00  0.00    +0.000 HD
ENDBRANCH  20  35
BRANCH  24  37
ATOM     37  O   UNL     1      13.540  20.558  45.404  0.00  0.00    +0.000 OA
ATOM     38  H   UNL     1      14.444  20.291  45.595  0.00  0.00    +0.000 HD
ENDBRANCH  24  37
ENDBRANCH  13  16
ENDBRANCH   1  13
BRANCH   4  39
ATOM     39  C   UNL     1       5.647  14.969  41.067  0.00  0.00    +0.000 C 
BRANCH  39  40
ATOM     40  O   UNL     1       5.977  15.549  39.784  0.00  0.00    +0.000 OA
BRANCH  40  41
ATOM     41  C   UNL     1       7.199  16.310  39.753  0.00  0.00    +0.000 C 
ATOM     42  O   UNL     1       7.951  16.109  38.528  0.00  0.00    +0.000 OA
ATOM     43  C   UNL     1       6.878  17.800  39.961  0.00  0.00    +0.000 C 
ATOM     44  C   UNL     1       7.390  16.641  37.300  0.00  0.00    +0.000 C 
ATOM     45  C   UNL     1       6.279  18.443  38.689  0.00  0.00    +0.000 C 
ATOM     46  C   UNL     1       7.174  18.164  37.459  0.00  0.00    +0.000 C 
ATOM     47  C   UNL     1       8.396  16.331  36.175  0.00  0.00    +0.000 C 
BRANCH  45  48
ATOM     48  O   UNL     1       6.196  19.852  38.910  0.00  0.00    +0.000 OA
ATOM     49  H   UNL     1       5.667  20.203  38.164  0.00  0.00    +0.000 HD
ENDBRANCH  45  48
BRANCH  46  50
ATOM     50  O   UNL     1       6.584  18.701  36.266  0.00  0.00    +0.000 OA
ATOM     51  H   UNL     1       5.659  18.950  36.439  0.00  0.00    +0.000 HD
ENDBRANCH  46  50
BRANCH  43  52
ATOM     52  O   UNL     1       8.114  18.428  40.290  0.00  0.00    +0.000 OA
ATOM     53  H   UNL     1       8.777  17.939  39.771  0.00  0.00    +0.000 HD
ENDBRANCH  43  52
ENDBRANCH  40  41
ENDBRANCH  39  40
ENDBRANCH   4  39
TORSDOF 16
ENDMDL
MODEL 5
REMARK VINA RESULT:    -6.147      3.056      8.132
REMARK INTER + INTRA:         -13.456
REMARK INTER:                 -10.923
REMARK INTRA:                  -2.534
REMARK UNBOUND:                -3.356
REMARK  Name = opt41.pdb
REMARK  17 active torsions:
REMARK  status: ('A' for Active; 'I' for Inactive)
REMARK    1  A    between atoms: C_3  and  O_5
REMARK    2  A    between atoms: O_5  and  C_9
REMARK    3  A    between atoms: C_6  and  C_11
REMARK    4  A    between atoms: C_8  and  O_13
REMARK    5  A    between atoms: C_16  and  O_21
REMARK    6  A    between atoms: C_19  and  O_25
REMARK    7  A    between atoms: C_20  and  C_27
REMARK    8  A    between atoms: C_22  and  O_28
REMARK    9  A    between atoms: C_23  and  O_29
REMARK   10  A    between atoms: C_26  and  O_31
REMARK   11  A    between atoms: C_27  and  O_32
REMARK   12  A    between atoms: C_30  and  O_33
REMARK   13  A    between atoms: O_32  and  C_34
REMARK   14  A    between atoms: C_36  and  O_38
REMARK   15  A    between atoms: C_37  and  C_41
REMARK   16  A    between atoms: C_39  and  O_42
REMARK   17  A    between atoms: C_40  and  O_43
REMARK                            x       y       z     vdW  Elec       q    Type
REMARK                         _______ _______ _______ _____ _____    ______ ____
ROOT
ATOM      1  C   UNL     1       8.206  14.745  43.681  0.00  0.00    +0.000 C 
ATOM      2  O   UNL     1       7.032  15.049  42.895  0.00  0.00    +0.000 OA
ATOM      3  C   UNL     1       7.952  13.364  44.273  0.00  0.00    +0.000 C 
ATOM      4  C   UNL     1       6.870  14.304  41.672  0.00  0.00    +0.000 C 
ATOM      5  C   UNL     1       7.882  12.371  43.119  0.00  0.00    +0.000 C 
ATOM      6  C   UNL     1       6.904  12.771  41.973  0.00  0.00    +0.000 C 
ENDROOT
BRANCH   3   7
ATOM      7  O   UNL     1       6.724  13.375  45.045  0.00  0.00    +0.000 OA
ATOM      8  H   UNL     1       6.163  14.158  44.843  0.00  0.00    +0.000 HD
ENDBRANCH   3   7
BRANCH   5   9
ATOM      9  O   UNL     1       7.493  11.129  43.673  0.00  0.00    +0.000 OA
ATOM     10  H   UNL     1       6.746  10.873  43.143  0.00  0.00    +0.000 HD
ENDBRANCH   5   9
BRANCH   6  11
ATOM     11  O   UNL     1       7.352  12.065  40.807  0.00  0.00    +0.000 OA
ATOM     12  H   UNL     1       8.329  12.110  40.749  0.00  0.00    +0.000 HD
ENDBRANCH   6  11
BRANCH   1  13
ATOM     13  O   UNL     1       9.429  14.866  42.861  0.00  0.00    +0.000 OA
BRANCH  13  16
ATOM     14  O   UNL     1       9.332  17.725  42.327  0.00  0.00    +0.000 OA
ATOM     15  C   UNL     1      10.310  17.185  42.807  0.00  0.00    +0.000 A 
ATOM     16  C   UNL     1      10.463  15.740  43.236  0.00  0.00    +0.000 A 
ATOM     17  C   UNL     1      11.464  18.003  43.112  0.00  0.00    +0.000 A 
ATOM     18  C   UNL     1      11.418  15.367  43.777  0.00  0.00    +0.000 A 
ATOM     19  C   UNL     1      12.337  17.445  44.000  0.00  0.00    +0.000 A 
ATOM     20  C   UNL     1      11.618  19.375  42.707  0.00  0.00    +0.000 A 
ATOM     21  O   UNL     1      12.001  16.141  44.375  0.00  0.00    +0.000 OA
ATOM     22  C   UNL     1      13.098  18.370  44.828  0.00  0.00    +0.000 A 
ATOM     23  C   UNL     1      12.406  20.237  43.444  0.00  0.00    +0.000 A 
ATOM     24  C   UNL     1      13.113  19.747  44.533  0.00  0.00    +0.000 A 
BRANCH  18  25
ATOM     25  C   UNL     1      12.310  14.103  43.918  0.00  0.00    +0.000 A 
ATOM     26  C   UNL     1      13.572  14.137  44.578  0.00  0.00    +0.000 A 
ATOM     27  C   UNL     1      11.919  12.826  43.418  0.00  0.00    +0.000 A 
ATOM     28  C   UNL     1      14.351  12.973  44.757  0.00  0.00    +0.000 A 
ATOM     29  C   UNL     1      12.708  11.688  43.583  0.00  0.00    +0.000 A 
ATOM     30  C   UNL     1      13.918  11.745  44.265  0.00  0.00    +0.000 A 
BRANCH  28  31
ATOM     31  O   UNL     1      15.531  12.968  45.455  0.00  0.00    +0.000 OA
ATOM     32  H   UNL     1      15.753  13.824  45.848  0.00  0.00    +0.000 HD
ENDBRANCH  28  31
BRANCH  30  33
ATOM     33  O   UNL     1      14.671  10.601  44.433  0.00  0.00    +0.000 OA
ATOM     34  H   UNL     1      15.361  10.692  45.138  0.00  0.00    +0.000 HD
ENDBRANCH  30  33
ENDBRANCH  18  25
BRANCH  20  35
ATOM     35  O   UNL     1      10.961  19.799  41.588  0.00  0.00    +0.000 OA
ATOM     36  H   UNL     1      10.488  19.016  41.217  0.00  0.00    +0.000 HD
ENDBRANCH  20  35
BRANCH  24  37
ATOM     37  O   UNL     1      13.812  20.663  45.263  0.00  0.00    +0.000 OA
ATOM     38  H   UNL     1      13.899  20.404  46.185  0.00  0.00    +0.000 HD
ENDBRANCH  24  37
ENDBRANCH  13  16
ENDBRANCH   1  13
BRANCH   4  39
ATOM     39  C   UNL     1       5.534  14.832  41.088  0.00  0.00    +0.000 C 
BRANCH  39  40
ATOM     40  O   UNL     1       5.504  16.276  41.027  0.00  0.00    +0.000 OA
BRANCH  40  41
ATOM     41  C   UNL     1       5.450  16.831  39.700  0.00  0.00    +0.000 C 
ATOM     42  O   UNL     1       5.452  18.283  39.701  0.00  0.00    +0.000 OA
ATOM     43  C   UNL     1       6.622  16.283  38.868  0.00  0.00    +0.000 C 
ATOM     44  C   UNL     1       6.671  18.953  40.115  0.00  0.00    +0.000 C 
ATOM     45  C   UNL     1       7.962  16.955  39.247  0.00  0.00    +0.000 C 
ATOM     46  C   UNL     1       7.834  18.496  39.205  0.00  0.00    +0.000 C 
ATOM     47  C   UNL     1       6.417  20.468  39.984  0.00  0.00    +0.000 C 
BRANCH  45  48
ATOM     48  O   UNL     1       8.945  16.531  38.303  0.00  0.00    +0.000 OA
ATOM     49  H   UNL     1       9.615  17.246  38.283  0.00  0.00    +0.000 HD
ENDBRANCH  45  48
BRANCH  46  50
ATOM     50  O   UNL     1       9.056  19.121  39.624  0.00  0.00    +0.000 OA
ATOM     51  H   UNL     1       9.146  19.052  40.591  0.00  0.00    +0.000 HD
ENDBRANCH  46  50
BRANCH  43  52
ATOM     52  O   UNL     1       6.305  16.561  37.508  0.00  0.00    +0.000 OA
ATOM     53  H   UNL     1       5.612  15.913  37.285  0.00  0.00    +0.000 HD
ENDBRANCH  43  52
ENDBRANCH  40  41
ENDBRANCH  39  40
ENDBRANCH   4  39
TORSDOF 16
ENDMDL
MODEL 6
REMARK VINA RESULT:    -6.127      2.345      5.817
REMARK INTER + INTRA:         -13.423
REMARK INTER:                 -10.859
REMARK INTRA:                  -2.565
REMARK UNBOUND:                -3.356
REMARK  Name = opt41.pdb
REMARK  17 active torsions:
REMARK  status: ('A' for Active; 'I' for Inactive)
REMARK    1  A    between atoms: C_3  and  O_5
REMARK    2  A    between atoms: O_5  and  C_9
REMARK    3  A    between atoms: C_6  and  C_11
REMARK    4  A    between atoms: C_8  and  O_13
REMARK    5  A    between atoms: C_16  and  O_21
REMARK    6  A    between atoms: C_19  and  O_25
REMARK    7  A    between atoms: C_20  and  C_27
REMARK    8  A    between atoms: C_22  and  O_28
REMARK    9  A    between atoms: C_23  and  O_29
REMARK   10  A    between atoms: C_26  and  O_31
REMARK   11  A    between atoms: C_27  and  O_32
REMARK   12  A    between atoms: C_30  and  O_33
REMARK   13  A    between atoms: O_32  and  C_34
REMARK   14  A    between atoms: C_36  and  O_38
REMARK   15  A    between atoms: C_37  and  C_41
REMARK   16  A    between atoms: C_39  and  O_42
REMARK   17  A    between atoms: C_40  and  O_43
REMARK                            x       y       z     vdW  Elec       q    Type
REMARK                         _______ _______ _______ _____ _____    ______ ____
ROOT
ATOM      1  C   UNL     1      14.366  14.618  43.073  0.00  0.00    +0.000 C 
ATOM      2  O   UNL     1      15.717  15.121  43.175  0.00  0.00    +0.000 OA
ATOM      3  C   UNL     1      14.489  13.101  43.153  0.00  0.00    +0.000 C 
ATOM      4  C   UNL     1      16.344  15.011  44.468  0.00  0.00    +0.000 C 
ATOM      5  C   UNL     1      15.024  12.752  44.537  0.00  0.00    +0.000 C 
ATOM      6  C   UNL     1      16.310  13.527  44.953  0.00  0.00    +0.000 C 
ENDROOT
BRANCH   3   7
ATOM      7  O   UNL     1      15.367  12.621  42.103  0.00  0.00    +0.000 OA
ATOM      8  H   UNL     1      14.936  11.940  41.538  0.00  0.00    +0.000 HD
ENDBRANCH   3   7
BRANCH   5   9
ATOM      9  O   UNL     1      15.277  11.361  44.536  0.00  0.00    +0.000 OA
ATOM     10  H   UNL     1      15.561  11.186  43.646  0.00  0.00    +0.000 HD
ENDBRANCH   5   9
BRANCH   6  11
ATOM     11  O   UNL     1      16.346  13.492  46.387  0.00  0.00    +0.000 OA
ATOM     12  H   UNL     1      15.899  12.681  46.709  0.00  0.00    +0.000 HD
ENDBRANCH   6  11
BRANCH   1  13
ATOM     13  O   UNL     1      13.500  15.236  44.098  0.00  0.00    +0.000 OA
BRANCH  13  16
ATOM     14  O   UNL     1      13.711  18.115  44.474  0.00  0.00    +0.000 OA
ATOM     15  C   UNL     1      12.692  17.583  44.077  0.00  0.00    +0.000 A 
ATOM     16  C   UNL     1      12.473  16.123  43.733  0.00  0.00    +0.000 A 
ATOM     17  C   UNL     1      11.548  18.420  43.791  0.00  0.00    +0.000 A 
ATOM     18  C   UNL     1      11.479  15.754  43.265  0.00  0.00    +0.000 A 
ATOM     19  C   UNL     1      10.611  17.847  42.981  0.00  0.00    +0.000 A 
ATOM     20  C   UNL     1      11.458  19.816  44.131  0.00  0.00    +0.000 A 
ATOM     21  O   UNL     1      10.887  16.515  42.658  0.00  0.00    +0.000 OA
ATOM     22  C   UNL     1       9.834  18.753  42.148  0.00  0.00    +0.000 A 
ATOM     23  C   UNL     1      10.656  20.665  43.392  0.00  0.00    +0.000 A 
ATOM     24  C   UNL     1       9.876  20.142  42.370  0.00  0.00    +0.000 A 
BRANCH  18  25
ATOM     25  C   UNL     1      10.544  14.514  43.239  0.00  0.00    +0.000 A 
ATOM     26  C   UNL     1      10.991  13.239  42.786  0.00  0.00    +0.000 A 
ATOM     27  C   UNL     1       9.191  14.561  43.684  0.00  0.00    +0.000 A 
ATOM     28  C   UNL     1      10.157  12.100  42.822  0.00  0.00    +0.000 A 
ATOM     29  C   UNL     1       8.369  13.433  43.694  0.00  0.00    +0.000 A 
ATOM     30  C   UNL     1       8.846  12.194  43.281  0.00  0.00    +0.000 A 
BRANCH  28  31
ATOM     31  O   UNL     1      10.589  10.849  42.464  0.00  0.00    +0.000 OA
ATOM     32  H   UNL     1      11.001  10.818  41.589  0.00  0.00    +0.000 HD
ENDBRANCH  28  31
BRANCH  30  33
ATOM     33  O   UNL     1       8.021  11.089  43.321  0.00  0.00    +0.000 OA
ATOM     34  H   UNL     1       8.519  10.233  43.288  0.00  0.00    +0.000 HD
ENDBRANCH  30  33
ENDBRANCH  18  25
BRANCH  20  35
ATOM     35  O   UNL     1      12.187  20.276  45.188  0.00  0.00    +0.000 OA
ATOM     36  H   UNL     1      11.558  20.398  45.940  0.00  0.00    +0.000 HD
ENDBRANCH  20  35
BRANCH  24  37
ATOM     37  O   UNL     1       9.165  21.042  41.631  0.00  0.00    +0.000 OA
ATOM     38  H   UNL     1       9.020  20.739  40.730  0.00  0.00    +0.000 HD
ENDBRANCH  24  37
ENDBRANCH  13  16
ENDBRANCH   1  13
BRANCH   4  39
ATOM     39  C   UNL     1      17.761  15.600  44.245  0.00  0.00    +0.000 C 
BRANCH  39  40
ATOM     40  O   UNL     1      17.711  16.946  43.718  0.00  0.00    +0.000 OA
BRANCH  40  41
ATOM     41  C   UNL     1      18.409  17.934  44.497  0.00  0.00    +0.000 C 
ATOM     42  O   UNL     1      18.256  19.276  43.965  0.00  0.00    +0.000 OA
ATOM     43  C   UNL     1      17.931  17.866  45.958  0.00  0.00    +0.000 C 
ATOM     44  C   UNL     1      16.943  19.888  44.054  0.00  0.00    +0.000 C 
ATOM     45  C   UNL     1      16.535  18.506  46.136  0.00  0.00    +0.000 C 
ATOM     46  C   UNL     1      16.503  19.931  45.536  0.00  0.00    +0.000 C 
ATOM     47  C   UNL     1      17.067  21.306  43.463  0.00  0.00    +0.000 C 
BRANCH  45  48
ATOM     48  O   UNL     1      16.261  18.571  47.537  0.00  0.00    +0.000 OA
ATOM     49  H   UNL     1      16.987  18.074  47.968  0.00  0.00    +0.000 HD
ENDBRANCH  45  48
BRANCH  46  50
ATOM     50  O   UNL     1      15.189  20.500  45.639  0.00  0.00    +0.000 OA
ATOM     51  H   UNL     1      14.533  19.792  45.769  0.00  0.00    +0.000 HD
ENDBRANCH  46  50
BRANCH  43  52
ATOM     52  O   UNL     1      18.896  18.579  46.724  0.00  0.00    +0.000 OA
ATOM     53  H   UNL     1      18.432  18.801  47.550  0.00  0.00    +0.000 HD
ENDBRANCH  43  52
ENDBRANCH  40  41
ENDBRANCH  39  40
ENDBRANCH   4  39
TORSDOF 16
ENDMDL
MODEL 7
REMARK VINA RESULT:    -6.116      2.726      6.146
REMARK INTER + INTRA:         -13.405
REMARK INTER:                 -10.710
REMARK INTRA:                  -2.695
REMARK UNBOUND:                -3.356
REMARK  Name = opt41.pdb
REMARK  17 active torsions:
REMARK  status: ('A' for Active; 'I' for Inactive)
REMARK    1  A    between atoms: C_3  and  O_5
REMARK    2  A    between atoms: O_5  and  C_9
REMARK    3  A    between atoms: C_6  and  C_11
REMARK    4  A    between atoms: C_8  and  O_13
REMARK    5  A    between atoms: C_16  and  O_21
REMARK    6  A    between atoms: C_19  and  O_25
REMARK    7  A    between atoms: C_20  and  C_27
REMARK    8  A    between atoms: C_22  and  O_28
REMARK    9  A    between atoms: C_23  and  O_29
REMARK   10  A    between atoms: C_26  and  O_31
REMARK   11  A    between atoms: C_27  and  O_32
REMARK   12  A    between atoms: C_30  and  O_33
REMARK   13  A    between atoms: O_32  and  C_34
REMARK   14  A    between atoms: C_36  and  O_38
REMARK   15  A    between atoms: C_37  and  C_41
REMARK   16  A    between atoms: C_39  and  O_42
REMARK   17  A    between atoms: C_40  and  O_43
REMARK                            x       y       z     vdW  Elec       q    Type
REMARK                         _______ _______ _______ _____ _____    ______ ____
ROOT
ATOM      1  C   UNL     1       8.759  14.490  41.312  0.00  0.00    +0.000 C 
ATOM      2  O   UNL     1       9.886  13.597  41.456  0.00  0.00    +0.000 OA
ATOM      3  C   UNL     1       7.644  13.876  42.149  0.00  0.00    +0.000 C 
ATOM      4  C   UNL     1      10.541  13.596  42.740  0.00  0.00    +0.000 C 
ATOM      5  C   UNL     1       8.090  13.904  43.607  0.00  0.00    +0.000 C 
ATOM      6  C   UNL     1       9.502  13.299  43.868  0.00  0.00    +0.000 C 
ENDROOT
BRANCH   3   7
ATOM      7  O   UNL     1       7.374  12.523  41.700  0.00  0.00    +0.000 OA
ATOM      8  H   UNL     1       7.958  11.861  42.135  0.00  0.00    +0.000 HD
ENDBRANCH   3   7
BRANCH   5   9
ATOM      9  O   UNL     1       7.116  13.193  44.345  0.00  0.00    +0.000 OA
ATOM     10  H   UNL     1       6.821  12.524  43.738  0.00  0.00    +0.000 HD
ENDBRANCH   5   9
BRANCH   6  11
ATOM     11  O   UNL     1       9.958  13.876  45.100  0.00  0.00    +0.000 OA
ATOM     12  H   UNL     1       9.373  13.592  45.834  0.00  0.00    +0.000 HD
ENDBRANCH   6  11
BRANCH   1  13
ATOM     13  O   UNL     1       9.136  15.870  41.676  0.00  0.00    +0.000 OA
BRANCH  13  16
ATOM     14  O   UNL     1       8.564  16.221  38.844  0.00  0.00    +0.000 OA
ATOM     15  C   UNL     1       9.577  16.652  39.362  0.00  0.00    +0.000 A 
ATOM     16  C   UNL     1       9.952  16.641  40.830  0.00  0.00    +0.000 A 
ATOM     17  C   UNL     1      10.526  17.357  38.530  0.00  0.00    +0.000 A 
ATOM     18  C   UNL     1      10.905  17.177  41.215  0.00  0.00    +0.000 A 
ATOM     19  C   UNL     1      11.401  18.152  39.211  0.00  0.00    +0.000 A 
ATOM     20  C   UNL     1      10.462  17.414  37.093  0.00  0.00    +0.000 A 
ATOM     21  O   UNL     1      11.277  18.060  40.601  0.00  0.00    +0.000 OA
ATOM     22  C   UNL     1      11.897  19.324  38.504  0.00  0.00    +0.000 A 
ATOM     23  C   UNL     1      11.005  18.485  36.411  0.00  0.00    +0.000 A 
ATOM     24  C   UNL     1      11.686  19.466  37.120  0.00  0.00    +0.000 A 
BRANCH  18  25
ATOM     25  C   UNL     1      11.997  17.056  42.314  0.00  0.00    +0.000 A 
ATOM     26  C   UNL     1      13.387  17.144  42.011  0.00  0.00    +0.000 A 
ATOM     27  C   UNL     1      11.686  16.872  43.692  0.00  0.00    +0.000 A 
ATOM     28  C   UNL     1      14.374  17.096  43.019  0.00  0.00    +0.000 A 
ATOM     29  C   UNL     1      12.672  16.804  44.677  0.00  0.00    +0.000 A 
ATOM     30  C   UNL     1      14.018  16.931  44.355  0.00  0.00    +0.000 A 
BRANCH  28  31
ATOM     31  O   UNL     1      15.711  17.255  42.760  0.00  0.00    +0.000 OA
ATOM     32  H   UNL     1      16.284  16.781  43.380  0.00  0.00    +0.000 HD
ENDBRANCH  28  31
BRANCH  30  33
ATOM     33  O   UNL     1      14.974  16.881  45.349  0.00  0.00    +0.000 OA
ATOM     34  H   UNL     1      15.515  17.708  45.406  0.00  0.00    +0.000 HD
ENDBRANCH  30  33
ENDBRANCH  18  25
BRANCH  20  35
ATOM     35  O   UNL     1       9.845  16.393  36.429  0.00  0.00    +0.000 OA
ATOM     36  H   UNL     1       9.988  16.549  35.464  0.00  0.00    +0.000 HD
ENDBRANCH  20  35
BRANCH  24  37
ATOM     37  O   UNL     1      12.133  20.533  36.398  0.00  0.00    +0.000 OA
ATOM     38  H   UNL     1      12.080  21.356  36.894  0.00  0.00    +0.000 HD
ENDBRANCH  24  37
ENDBRANCH  13  16
ENDBRANCH   1  13
BRANCH   4  39
ATOM     39  C   UNL     1      11.665  12.540  42.583  0.00  0.00    +0.000 C 
BRANCH  39  40
ATOM     40  O   UNL     1      12.971  13.152  42.475  0.00  0.00    +0.000 OA
BRANCH  40  41
ATOM     41  C   UNL     1      14.083  12.265  42.701  0.00  0.00    +0.000 C 
ATOM     42  O   UNL     1      15.268  12.654  41.960  0.00  0.00    +0.000 OA
ATOM     43  C   UNL     1      14.379  12.190  44.209  0.00  0.00    +0.000 C 
ATOM     44  C   UNL     1      15.942  13.875  42.363  0.00  0.00    +0.000 C 
ATOM     45  C   UNL     1      15.105  13.458  44.716  0.00  0.00    +0.000 C 
ATOM     46  C   UNL     1      16.350  13.761  43.850  0.00  0.00    +0.000 C 
ATOM     47  C   UNL     1      17.175  14.029  41.452  0.00  0.00    +0.000 C 
BRANCH  45  48
ATOM     48  O   UNL     1      15.508  13.219  46.065  0.00  0.00    +0.000 OA
ATOM     49  H   UNL     1      16.151  12.482  46.020  0.00  0.00    +0.000 HD
ENDBRANCH  45  48
BRANCH  46  50
ATOM     50  O   UNL     1      16.985  14.976  44.276  0.00  0.00    +0.000 OA
ATOM     51  H   UNL     1      17.813  14.768  44.744  0.00  0.00    +0.000 HD
ENDBRANCH  46  50
BRANCH  43  52
ATOM     52  O   UNL     1      15.208  11.047  44.393  0.00  0.00    +0.000 OA
ATOM     53  H   UNL     1      16.106  11.413  44.483  0.00  0.00    +0.000 HD
ENDBRANCH  43  52
ENDBRANCH  40  41
ENDBRANCH  39  40
ENDBRANCH   4  39
TORSDOF 16
ENDMDL
MODEL 8
REMARK VINA RESULT:    -5.946      2.132      5.462
REMARK INTER + INTRA:         -13.125
REMARK INTER:                 -10.419
REMARK INTRA:                  -2.707
REMARK UNBOUND:                -3.356
REMARK  Name = opt41.pdb
REMARK  17 active torsions:
REMARK  status: ('A' for Active; 'I' for Inactive)
REMARK    1  A    between atoms: C_3  and  O_5
REMARK    2  A    between atoms: O_5  and  C_9
REMARK    3  A    between atoms: C_6  and  C_11
REMARK    4  A    between atoms: C_8  and  O_13
REMARK    5  A    between atoms: C_16  and  O_21
REMARK    6  A    between atoms: C_19  and  O_25
REMARK    7  A    between atoms: C_20  and  C_27
REMARK    8  A    between atoms: C_22  and  O_28
REMARK    9  A    between atoms: C_23  and  O_29
REMARK   10  A    between atoms: C_26  and  O_31
REMARK   11  A    between atoms: C_27  and  O_32
REMARK   12  A    between atoms: C_30  and  O_33
REMARK   13  A    between atoms: O_32  and  C_34
REMARK   14  A    between atoms: C_36  and  O_38
REMARK   15  A    between atoms: C_37  and  C_41
REMARK   16  A    between atoms: C_39  and  O_42
REMARK   17  A    between atoms: C_40  and  O_43
REMARK                            x       y       z     vdW  Elec       q    Type
REMARK                         _______ _______ _______ _____ _____    ______ ____
ROOT
ATOM      1  C   UNL     1      14.216  14.526  43.130  0.00  0.00    +0.000 C 
ATOM      2  O   UNL     1      15.564  15.049  43.154  0.00  0.00    +0.000 OA
ATOM      3  C   UNL     1      14.366  13.012  43.205  0.00  0.00    +0.000 C 
ATOM      4  C   UNL     1      16.265  14.952  44.409  0.00  0.00    +0.000 C 
ATOM      5  C   UNL     1      14.984  12.674  44.557  0.00  0.00    +0.000 C 
ATOM      6  C   UNL     1      16.280  13.468  44.898  0.00  0.00    +0.000 C 
ENDROOT
BRANCH   3   7
ATOM      7  O   UNL     1      15.190  12.541  42.108  0.00  0.00    +0.000 OA
ATOM      8  H   UNL     1      16.079  12.244  42.409  0.00  0.00    +0.000 HD
ENDBRANCH   3   7
BRANCH   5   9
ATOM      9  O   UNL     1      15.257  11.286  44.544  0.00  0.00    +0.000 OA
ATOM     10  H   UNL     1      15.298  11.076  43.618  0.00  0.00    +0.000 HD
ENDBRANCH   5   9
BRANCH   6  11
ATOM     11  O   UNL     1      16.398  13.438  46.328  0.00  0.00    +0.000 OA
ATOM     12  H   UNL     1      15.538  13.678  46.734  0.00  0.00    +0.000 HD
ENDBRANCH   6  11
BRANCH   1  13
ATOM     13  O   UNL     1      13.402  15.135  44.201  0.00  0.00    +0.000 OA
BRANCH  13  16
ATOM     14  O   UNL     1      11.252  13.229  44.664  0.00  0.00    +0.000 OA
ATOM     15  C   UNL     1      11.055  14.328  44.180  0.00  0.00    +0.000 A 
ATOM     16  C   UNL     1      12.050  15.453  43.985  0.00  0.00    +0.000 A 
ATOM     17  C   UNL     1       9.701  14.686  43.820  0.00  0.00    +0.000 A 
ATOM     18  C   UNL     1      11.717  16.496  43.603  0.00  0.00    +0.000 A 
ATOM     19  C   UNL     1       9.484  16.026  43.682  0.00  0.00    +0.000 A 
ATOM     20  C   UNL     1       8.594  13.766  43.805  0.00  0.00    +0.000 A 
ATOM     21  O   UNL     1      10.640  16.799  43.819  0.00  0.00    +0.000 OA
ATOM     22  C   UNL     1       8.138  16.497  43.974  0.00  0.00    +0.000 A 
ATOM     23  C   UNL     1       7.304  14.220  43.999  0.00  0.00    +0.000 A 
ATOM     24  C   UNL     1       7.078  15.584  44.130  0.00  0.00    +0.000 A 
BRANCH  18  25
ATOM     25  C   UNL     1      12.231  17.692  42.754  0.00  0.00    +0.000 A 
ATOM     26  C   UNL     1      12.397  18.994  43.307  0.00  0.00    +0.000 A 
ATOM     27  C   UNL     1      12.588  17.563  41.381  0.00  0.00    +0.000 A 
ATOM     28  C   UNL     1      12.923  20.064  42.549  0.00  0.00    +0.000 A 
ATOM     29  C   UNL     1      13.086  18.633  40.636  0.00  0.00    +0.000 A 
ATOM     30  C   UNL     1      13.273  19.884  41.214  0.00  0.00    +0.000 A 
BRANCH  28  31
ATOM     31  O   UNL     1      13.164  21.305  43.080  0.00  0.00    +0.000 OA
ATOM     32  H   UNL     1      12.534  21.979  42.788  0.00  0.00    +0.000 HD
ENDBRANCH  28  31
BRANCH  30  33
ATOM     33  O   UNL     1      13.786  20.921  40.462  0.00  0.00    +0.000 OA
ATOM     34  H   UNL     1      13.377  20.986  39.563  0.00  0.00    +0.000 HD
ENDBRANCH  30  33
ENDBRANCH  18  25
BRANCH  20  35
ATOM     35  O   UNL     1       8.853  12.441  43.603  0.00  0.00    +0.000 OA
ATOM     36  H   UNL     1       9.721  12.385  43.133  0.00  0.00    +0.000 HD
ENDBRANCH  20  35
BRANCH  24  37
ATOM     37  O   UNL     1       5.795  15.962  44.395  0.00  0.00    +0.000 OA
ATOM     38  H   UNL     1       5.729  16.490  45.196  0.00  0.00    +0.000 HD
ENDBRANCH  24  37
ENDBRANCH  13  16
ENDBRANCH   1  13
BRANCH   4  39
ATOM     39  C   UNL     1      17.658  15.560  44.104  0.00  0.00    +0.000 C 
BRANCH  39  40
ATOM     40  O   UNL     1      17.557  16.875  43.510  0.00  0.00    +0.000 OA
BRANCH  40  41
ATOM     41  C   UNL     1      18.221  17.927  44.234  0.00  0.00    +0.000 C 
ATOM     42  O   UNL     1      17.970  19.239  43.667  0.00  0.00    +0.000 OA
ATOM     43  C   UNL     1      17.798  17.877  45.712  0.00  0.00    +0.000 C 
ATOM     44  C   UNL     1      16.627  19.776  43.785  0.00  0.00    +0.000 C 
ATOM     45  C   UNL     1      16.373  18.441  45.921  0.00  0.00    +0.000 C 
ATOM     46  C   UNL     1      16.237  19.841  45.280  0.00  0.00    +0.000 C 
ATOM     47  C   UNL     1      16.647  21.179  43.148  0.00  0.00    +0.000 C 
BRANCH  45  48
ATOM     48  O   UNL     1      16.144  18.534  47.328  0.00  0.00    +0.000 OA
ATOM     49  H   UNL     1      15.678  17.708  47.572  0.00  0.00    +0.000 HD
ENDBRANCH  45  48
BRANCH  46  50
ATOM     50  O   UNL     1      14.896  20.336  45.413  0.00  0.00    +0.000 OA
ATOM     51  H   UNL     1      14.354  19.692  45.903  0.00  0.00    +0.000 HD
ENDBRANCH  46  50
BRANCH  43  52
ATOM     52  O   UNL     1      18.745  18.670  46.421  0.00  0.00    +0.000 OA
ATOM     53  H   UNL     1      19.590  18.495  45.971  0.00  0.00    +0.000 HD
ENDBRANCH  43  52
ENDBRANCH  40  41
ENDBRANCH  39  40
ENDBRANCH   4  39
TORSDOF 16
ENDMDL
MODEL 9
REMARK VINA RESULT:    -5.935      1.066      1.101
REMARK INTER + INTRA:         -13.108
REMARK INTER:                 -10.413
REMARK INTRA:                  -2.695
REMARK UNBOUND:                -3.356
REMARK  Name = opt41.pdb
REMARK  17 active torsions:
REMARK  status: ('A' for Active; 'I' for Inactive)
REMARK    1  A    between atoms: C_3  and  O_5
REMARK    2  A    between atoms: O_5  and  C_9
REMARK    3  A    between atoms: C_6  and  C_11
REMARK    4  A    between atoms: C_8  and  O_13
REMARK    5  A    between atoms: C_16  and  O_21
REMARK    6  A    between atoms: C_19  and  O_25
REMARK    7  A    between atoms: C_20  and  C_27
REMARK    8  A    between atoms: C_22  and  O_28
REMARK    9  A    between atoms: C_23  and  O_29
REMARK   10  A    between atoms: C_26  and  O_31
REMARK   11  A    between atoms: C_27  and  O_32
REMARK   12  A    between atoms: C_30  and  O_33
REMARK   13  A    between atoms: O_32  and  C_34
REMARK   14  A    between atoms: C_36  and  O_38
REMARK   15  A    between atoms: C_37  and  C_41
REMARK   16  A    between atoms: C_39  and  O_42
REMARK   17  A    between atoms: C_40  and  O_43
REMARK                            x       y       z     vdW  Elec       q    Type
REMARK                         _______ _______ _______ _____ _____    ______ ____
ROOT
ATOM      1  C   UNL     1      10.376  17.245  43.158  0.00  0.00    +0.000 C 
ATOM      2  O   UNL     1      11.701  17.057  43.704  0.00  0.00    +0.000 OA
ATOM      3  C   UNL     1      10.377  18.648  42.564  0.00  0.00    +0.000 C 
ATOM      4  C   UNL     1      12.770  16.899  42.750  0.00  0.00    +0.000 C 
ATOM      5  C   UNL     1      11.374  18.662  41.410  0.00  0.00    +0.000 C 
ATOM      6  C   UNL     1      12.787  18.111  41.764  0.00  0.00    +0.000 C 
ENDROOT
BRANCH   3   7
ATOM      7  O   UNL     1      10.726  19.618  43.584  0.00  0.00    +0.000 OA
ATOM      8  H   UNL     1      11.471  20.200  43.307  0.00  0.00    +0.000 HD
ENDBRANCH   3   7
BRANCH   5   9
ATOM      9  O   UNL     1      11.474  20.004  40.974  0.00  0.00    +0.000 OA
ATOM     10  H   UNL     1      10.783  20.446  41.454  0.00  0.00    +0.000 HD
ENDBRANCH   5   9
BRANCH   6  11
ATOM     11  O   UNL     1      13.376  17.704  40.520  0.00  0.00    +0.000 OA
ATOM     12  H   UNL     1      13.069  18.296  39.801  0.00  0.00    +0.000 HD
ENDBRANCH   6  11
BRANCH   1  13
ATOM     13  O   UNL     1      10.041  16.159  42.215  0.00  0.00    +0.000 OA
BRANCH  13  16
ATOM     14  O   UNL     1       7.195  15.976  42.792  0.00  0.00    +0.000 OA
ATOM     15  C   UNL     1       7.965  15.060  43.013  0.00  0.00    +0.000 A 
ATOM     16  C   UNL     1       9.437  14.974  42.667  0.00  0.00    +0.000 A 
ATOM     17  C   UNL     1       7.436  13.844  43.591  0.00  0.00    +0.000 A 
ATOM     18  C   UNL     1      10.043  14.001  42.841  0.00  0.00    +0.000 A 
ATOM     19  C   UNL     1       8.230  12.746  43.433  0.00  0.00    +0.000 A 
ATOM     20  C   UNL     1       6.101  13.705  44.110  0.00  0.00    +0.000 A 
ATOM     21  O   UNL     1       9.458  13.025  42.825  0.00  0.00    +0.000 OA
ATOM     22  C   UNL     1       7.552  11.460  43.369  0.00  0.00    +0.000 A 
ATOM     23  C   UNL     1       5.483  12.470  44.128  0.00  0.00    +0.000 A 
ATOM     24  C   UNL     1       6.192  11.350  43.715  0.00  0.00    +0.000 A 
BRANCH  18  25
ATOM     25  C   UNL     1      11.475  13.520  43.205  0.00  0.00    +0.000 A 
ATOM     26  C   UNL     1      12.391  13.056  42.217  0.00  0.00    +0.000 A 
ATOM     27  C   UNL     1      11.974  13.531  44.540  0.00  0.00    +0.000 A 
ATOM     28  C   UNL     1      13.712  12.678  42.544  0.00  0.00    +0.000 A 
ATOM     29  C   UNL     1      13.275  13.134  44.853  0.00  0.00    +0.000 A 
ATOM     30  C   UNL     1      14.158  12.721  43.862  0.00  0.00    +0.000 A 
BRANCH  28  31
ATOM     31  O   UNL     1      14.633  12.302  41.601  0.00  0.00    +0.000 OA
ATOM     32  H   UNL     1      15.203  13.026  41.306  0.00  0.00    +0.000 HD
ENDBRANCH  28  31
BRANCH  30  33
ATOM     33  O   UNL     1      15.446  12.354  44.195  0.00  0.00    +0.000 OA
ATOM     34  H   UNL     1      16.130  12.969  43.828  0.00  0.00    +0.000 HD
ENDBRANCH  30  33
ENDBRANCH  18  25
BRANCH  20  35
ATOM     35  O   UNL     1       5.464  14.820  44.573  0.00  0.00    +0.000 OA
ATOM     36  H   UNL     1       4.886  15.146  43.841  0.00  0.00    +0.000 HD
ENDBRANCH  20  35
BRANCH  24  37
ATOM     37  O   UNL     1       5.502  10.175  43.685  0.00  0.00    +0.000 OA
ATOM     38  H   UNL     1       6.078   9.412  43.799  0.00  0.00    +0.000 HD
ENDBRANCH  24  37
ENDBRANCH  13  16
ENDBRANCH   1  13
BRANCH   4  39
ATOM     39  C   UNL     1      14.036  16.748  43.632  0.00  0.00    +0.000 C 
BRANCH  39  40
ATOM     40  O   UNL     1      15.220  16.498  42.840  0.00  0.00    +0.000 OA
BRANCH  40  41
ATOM     41  C   UNL     1      15.981  15.339  43.228  0.00  0.00    +0.000 C 
ATOM     42  O   UNL     1      16.575  14.655  42.094  0.00  0.00    +0.000 OA
ATOM     43  C   UNL     1      17.060  15.751  44.245  0.00  0.00    +0.000 C 
ATOM     44  C   UNL     1      17.646  15.332  41.387  0.00  0.00    +0.000 C 
ATOM     45  C   UNL     1      18.244  16.476  43.565  0.00  0.00    +0.000 C 
ATOM     46  C   UNL     1      18.790  15.646  42.380  0.00  0.00    +0.000 C 
ATOM     47  C   UNL     1      18.118  14.381  40.269  0.00  0.00    +0.000 C 
BRANCH  45  48
ATOM     48  O   UNL     1      19.271  16.646  44.543  0.00  0.00    +0.000 OA
ATOM     49  H   UNL     1      18.827  16.540  45.410  0.00  0.00    +0.000 HD
ENDBRANCH  45  48
BRANCH  46  50
ATOM     50  O   UNL     1      19.843  16.349  41.705  0.00  0.00    +0.000 OA
ATOM     51  H   UNL     1      20.253  15.769  41.040  0.00  0.00    +0.000 HD
ENDBRANCH  46  50
BRANCH  43  52
ATOM     52  O   UNL     1      17.511  14.546  44.854  0.00  0.00    +0.000 OA
ATOM     53  H   UNL     1      17.420  14.710  45.809  0.00  0.00    +0.000 HD
ENDBRANCH  43  52
ENDBRANCH  40  41
ENDBRANCH  39  40
ENDBRANCH   4  39
TORSDOF 16
ENDMDL
MODEL 10
REMARK VINA RESULT:    -5.934      2.670      6.005
REMARK INTER + INTRA:         -13.106
REMARK INTER:                 -10.724
REMARK INTRA:                  -2.382
REMARK UNBOUND:                -3.356
REMARK  Name = opt41.pdb
REMARK  17 active torsions:
REMARK  status: ('A' for Active; 'I' for Inactive)
REMARK    1  A    between atoms: C_3  and  O_5
REMARK    2  A    between atoms: O_5  and  C_9
REMARK    3  A    between atoms: C_6  and  C_11
REMARK    4  A    between atoms: C_8  and  O_13
REMARK    5  A    between atoms: C_16  and  O_21
REMARK    6  A    between atoms: C_19  and  O_25
REMARK    7  A    between atoms: C_20  and  C_27
REMARK    8  A    between atoms: C_22  and  O_28
REMARK    9  A    between atoms: C_23  and  O_29
REMARK   10  A    between atoms: C_26  and  O_31
REMARK   11  A    between atoms: C_27  and  O_32
REMARK   12  A    between atoms: C_30  and  O_33
REMARK   13  A    between atoms: O_32  and  C_34
REMARK   14  A    between atoms: C_36  and  O_38
REMARK   15  A    between atoms: C_37  and  C_41
REMARK   16  A    between atoms: C_39  and  O_42
REMARK   17  A    between atoms: C_40  and  O_43
REMARK                            x       y       z     vdW  Elec       q    Type
REMARK                         _______ _______ _______ _____ _____    ______ ____
ROOT
ATOM      1  C   UNL     1      14.237  14.576  43.047  0.00  0.00    +0.000 C 
ATOM      2  O   UNL     1      15.569  15.126  43.152  0.00  0.00    +0.000 OA
ATOM      3  C   UNL     1      14.413  13.064  43.114  0.00  0.00    +0.000 C 
ATOM      4  C   UNL     1      16.202  15.028  44.443  0.00  0.00    +0.000 C 
ATOM      5  C   UNL     1      14.962  12.723  44.495  0.00  0.00    +0.000 C 
ATOM      6  C   UNL     1      16.221  13.539  44.916  0.00  0.00    +0.000 C 
ENDROOT
BRANCH   3   7
ATOM      7  O   UNL     1      15.307  12.623  42.060  0.00  0.00    +0.000 OA
ATOM      8  H   UNL     1      15.045  12.973  41.178  0.00  0.00    +0.000 HD
ENDBRANCH   3   7
BRANCH   5   9
ATOM      9  O   UNL     1      15.264  11.342  44.484  0.00  0.00    +0.000 OA
ATOM     10  H   UNL     1      16.203  11.321  44.336  0.00  0.00    +0.000 HD
ENDBRANCH   5   9
BRANCH   6  11
ATOM     11  O   UNL     1      16.259  13.495  46.350  0.00  0.00    +0.000 OA
ATOM     12  H   UNL     1      16.588  12.620  46.644  0.00  0.00    +0.000 HD
ENDBRANCH   6  11
BRANCH   1  13
ATOM     13  O   UNL     1      13.351  15.156  44.078  0.00  0.00    +0.000 OA
BRANCH  13  16
ATOM     14  O   UNL     1      13.649  18.030  44.423  0.00  0.00    +0.000 OA
ATOM     15  C   UNL     1      12.607  17.523  44.054  0.00  0.00    +0.000 A 
ATOM     16  C   UNL     1      12.340  16.067  43.728  0.00  0.00    +0.000 A 
ATOM     17  C   UNL     1      11.479  18.389  43.787  0.00  0.00    +0.000 A 
ATOM     18  C   UNL     1      11.326  15.722  43.286  0.00  0.00    +0.000 A 
ATOM     19  C   UNL     1      10.508  17.835  43.004  0.00  0.00    +0.000 A 
ATOM     20  C   UNL     1      11.435  19.789  44.116  0.00  0.00    +0.000 A 
ATOM     21  O   UNL     1      10.741  16.493  42.687  0.00  0.00    +0.000 OA
ATOM     22  C   UNL     1       9.737  18.754  42.181  0.00  0.00    +0.000 A 
ATOM     23  C   UNL     1      10.640  20.654  43.389  0.00  0.00    +0.000 A 
ATOM     24  C   UNL     1       9.822  20.144  42.389  0.00  0.00    +0.000 A 
BRANCH  18  25
ATOM     25  C   UNL     1      10.357  14.507  43.293  0.00  0.00    +0.000 A 
ATOM     26  C   UNL     1      10.771  13.208  42.880  0.00  0.00    +0.000 A 
ATOM     27  C   UNL     1       9.004  14.604  43.731  0.00  0.00    +0.000 A 
ATOM     28  C   UNL     1       9.906  12.094  42.946  0.00  0.00    +0.000 A 
ATOM     29  C   UNL     1       8.152  13.500  43.771  0.00  0.00    +0.000 A 
ATOM     30  C   UNL     1       8.596  12.237  43.397  0.00  0.00    +0.000 A 
BRANCH  28  31
ATOM     31  O   UNL     1      10.304  10.821  42.627  0.00  0.00    +0.000 OA
ATOM     32  H   UNL     1      10.469  10.262  43.400  0.00  0.00    +0.000 HD
ENDBRANCH  28  31
BRANCH  30  33
ATOM     33  O   UNL     1       7.741  11.156  43.465  0.00  0.00    +0.000 OA
ATOM     34  H   UNL     1       7.016  11.278  44.130  0.00  0.00    +0.000 HD
ENDBRANCH  30  33
ENDBRANCH  18  25
BRANCH  20  35
ATOM     35  O   UNL     1      12.201  20.238  45.153  0.00  0.00    +0.000 OA
ATOM     36  H   UNL     1      11.940  19.716  45.950  0.00  0.00    +0.000 HD
ENDBRANCH  20  35
BRANCH  24  37
ATOM     37  O   UNL     1       9.119  21.057  41.659  0.00  0.00    +0.000 OA
ATOM     38  H   UNL     1       9.135  20.860  40.718  0.00  0.00    +0.000 HD
ENDBRANCH  24  37
ENDBRANCH  13  16
ENDBRANCH   1  13
BRANCH   4  39
ATOM     39  C   UNL     1      17.597  15.668  44.223  0.00  0.00    +0.000 C 
BRANCH  39  40
ATOM     40  O   UNL     1      18.047  16.398  45.388  0.00  0.00    +0.000 OA
BRANCH  40  41
ATOM     41  C   UNL     1      17.096  17.333  45.930  0.00  0.00    +0.000 C 
ATOM     42  O   UNL     1      17.347  17.639  47.326  0.00  0.00    +0.000 OA
ATOM     43  C   UNL     1      17.097  18.615  45.079  0.00  0.00    +0.000 C 
ATOM     44  C   UNL     1      18.537  18.406  47.643  0.00  0.00    +0.000 C 
ATOM     45  C   UNL     1      18.337  19.494  45.365  0.00  0.00    +0.000 C 
ATOM     46  C   UNL     1      18.490  19.752  46.882  0.00  0.00    +0.000 C 
ATOM     47  C   UNL     1      18.539  18.623  49.169  0.00  0.00    +0.000 C 
BRANCH  45  48
ATOM     48  O   UNL     1      18.157  20.736  44.684  0.00  0.00    +0.000 OA
ATOM     49  H   UNL     1      17.584  20.533  43.916  0.00  0.00    +0.000 HD
ENDBRANCH  45  48
BRANCH  46  50
ATOM     50  O   UNL     1      19.678  20.508  47.155  0.00  0.00    +0.000 OA
ATOM     51  H   UNL     1      19.546  21.056  47.949  0.00  0.00    +0.000 HD
ENDBRANCH  46  50
BRANCH  43  52
ATOM     52  O   UNL     1      15.910  19.320  45.426  0.00  0.00    +0.000 OA
ATOM     53  H   UNL     1      15.336  18.643  45.827  0.00  0.00    +0.000 HD
ENDBRANCH  43  52
ENDBRANCH  40  41
ENDBRANCH  39  40
ENDBRANCH   4  39
TORSDOF 16
ENDMDL
MODEL 11
REMARK VINA RESULT:    -5.930      1.754      2.412
REMARK INTER + INTRA:         -13.098
REMARK INTER:                 -10.645
REMARK INTRA:                  -2.454
REMARK UNBOUND:                -3.356
REMARK  Name = opt41.pdb
REMARK  17 active torsions:
REMARK  status: ('A' for Active; 'I' for Inactive)
REMARK    1  A    between atoms: C_3  and  O_5
REMARK    2  A    between atoms: O_5  and  C_9
REMARK    3  A    between atoms: C_6  and  C_11
REMARK    4  A    between atoms: C_8  and  O_13
REMARK    5  A    between atoms: C_16  and  O_21
REMARK    6  A    between atoms: C_19  and  O_25
REMARK    7  A    between atoms: C_20  and  C_27
REMARK    8  A    between atoms: C_22  and  O_28
REMARK    9  A    between atoms: C_23  and  O_29
REMARK   10  A    between atoms: C_26  and  O_31
REMARK   11  A    between atoms: C_27  and  O_32
REMARK   12  A    between atoms: C_30  and  O_33
REMARK   13  A    between atoms: O_32  and  C_34
REMARK   14  A    between atoms: C_36  and  O_38
REMARK   15  A    between atoms: C_37  and  C_41
REMARK   16  A    between atoms: C_39  and  O_42
REMARK   17  A    between atoms: C_40  and  O_43
REMARK                            x       y       z     vdW  Elec       q    Type
REMARK                         _______ _______ _______ _____ _____    ______ ____
ROOT
ATOM      1  C   UNL     1      10.318  16.999  41.962  0.00  0.00    +0.000 C 
ATOM      2  O   UNL     1      11.653  17.475  42.246  0.00  0.00    +0.000 OA
ATOM      3  C   UNL     1       9.688  18.063  41.071  0.00  0.00    +0.000 C 
ATOM      4  C   UNL     1      12.591  17.440  41.153  0.00  0.00    +0.000 C 
ATOM      5  C   UNL     1      10.471  18.094  39.763  0.00  0.00    +0.000 C 
ATOM      6  C   UNL     1      12.015  18.224  39.931  0.00  0.00    +0.000 C 
ENDROOT
BRANCH   3   7
ATOM      7  O   UNL     1       9.715  19.349  41.741  0.00  0.00    +0.000 OA
ATOM      8  H   UNL     1      10.627  19.709  41.824  0.00  0.00    +0.000 HD
ENDBRANCH   3   7
BRANCH   5   9
ATOM      9  O   UNL     1       9.973  19.187  39.016  0.00  0.00    +0.000 OA
ATOM     10  H   UNL     1       9.307  19.559  39.584  0.00  0.00    +0.000 HD
ENDBRANCH   5   9
BRANCH   6  11
ATOM     11  O   UNL     1      12.589  17.710  38.720  0.00  0.00    +0.000 OA
ATOM     12  H   UNL     1      12.569  16.730  38.737  0.00  0.00    +0.000 HD
ENDBRANCH   6  11
BRANCH   1  13
ATOM     13  O   UNL     1      10.360  15.639  41.389  0.00  0.00    +0.000 OA
BRANCH  13  16
ATOM     14  O   UNL     1       7.467  15.330  41.451  0.00  0.00    +0.000 OA
ATOM     15  C   UNL     1       8.214  14.591  42.064  0.00  0.00    +0.000 A 
ATOM     16  C   UNL     1       9.729  14.564  42.038  0.00  0.00    +0.000 A 
ATOM     17  C   UNL     1       7.631  13.529  42.854  0.00  0.00    +0.000 A 
ATOM     18  C   UNL     1      10.329  13.741  42.592  0.00  0.00    +0.000 A 
ATOM     19  C   UNL     1       8.490  12.515  43.166  0.00  0.00    +0.000 A 
ATOM     20  C   UNL     1       6.225  13.401  43.132  0.00  0.00    +0.000 A 
ATOM     21  O   UNL     1       9.804  12.742  42.745  0.00  0.00    +0.000 OA
ATOM     22  C   UNL     1       7.898  11.198  43.345  0.00  0.00    +0.000 A 
ATOM     23  C   UNL     1       5.673  12.160  43.384  0.00  0.00    +0.000 A 
ATOM     24  C   UNL     1       6.502  11.048  43.447  0.00  0.00    +0.000 A 
BRANCH  18  25
ATOM     25  C   UNL     1      11.673  13.524  43.339  0.00  0.00    +0.000 A 
ATOM     26  C   UNL     1      12.215  12.224  43.560  0.00  0.00    +0.000 A 
ATOM     27  C   UNL     1      12.462  14.603  43.833  0.00  0.00    +0.000 A 
ATOM     28  C   UNL     1      13.466  12.034  44.185  0.00  0.00    +0.000 A 
ATOM     29  C   UNL     1      13.688  14.401  44.469  0.00  0.00    +0.000 A 
ATOM     30  C   UNL     1      14.208  13.122  44.636  0.00  0.00    +0.000 A 
BRANCH  28  31
ATOM     31  O   UNL     1      14.042  10.799  44.338  0.00  0.00    +0.000 OA
ATOM     32  H   UNL     1      14.898  10.713  43.895  0.00  0.00    +0.000 HD
ENDBRANCH  28  31
BRANCH  30  33
ATOM     33  O   UNL     1      15.432  12.950  45.249  0.00  0.00    +0.000 OA
ATOM     34  H   UNL     1      16.179  13.358  44.742  0.00  0.00    +0.000 HD
ENDBRANCH  30  33
ENDBRANCH  18  25
BRANCH  20  35
ATOM     35  O   UNL     1       5.457  14.528  43.130  0.00  0.00    +0.000 OA
ATOM     36  H   UNL     1       6.047  15.279  43.385  0.00  0.00    +0.000 HD
ENDBRANCH  20  35
BRANCH  24  37
ATOM     37  O   UNL     1       5.887   9.844  43.624  0.00  0.00    +0.000 OA
ATOM     38  H   UNL     1       5.009   9.937  44.007  0.00  0.00    +0.000 HD
ENDBRANCH  24  37
ENDBRANCH  13  16
ENDBRANCH   1  13
BRANCH   4  39
ATOM     39  C   UNL     1      13.891  18.026  41.760  0.00  0.00    +0.000 C 
BRANCH  39  40
ATOM     40  O   UNL     1      14.791  16.990  42.216  0.00  0.00    +0.000 OA
BRANCH  40  41
ATOM     41  C   UNL     1      16.152  17.411  42.425  0.00  0.00    +0.000 C 
ATOM     42  O   UNL     1      16.379  17.925  43.764  0.00  0.00    +0.000 OA
ATOM     43  C   UNL     1      17.102  16.240  42.121  0.00  0.00    +0.000 C 
ATOM     44  C   UNL     1      16.322  16.981  44.865  0.00  0.00    +0.000 C 
ATOM     45  C   UNL     1      17.104  15.189  43.256  0.00  0.00    +0.000 C 
ATOM     46  C   UNL     1      17.361  15.860  44.625  0.00  0.00    +0.000 C 
ATOM     47  C   UNL     1      16.636  17.771  46.150  0.00  0.00    +0.000 C 
BRANCH  45  48
ATOM     48  O   UNL     1      18.144  14.251  42.980  0.00  0.00    +0.000 OA
ATOM     49  H   UNL     1      18.001  13.966  42.053  0.00  0.00    +0.000 HD
ENDBRANCH  45  48
BRANCH  46  50
ATOM     50  O   UNL     1      17.292  14.897  45.687  0.00  0.00    +0.000 OA
ATOM     51  H   UNL     1      17.897  15.155  46.404  0.00  0.00    +0.000 HD
ENDBRANCH  46  50
BRANCH  43  52
ATOM     52  O   UNL     1      18.400  16.809  41.982  0.00  0.00    +0.000 OA
ATOM     53  H   UNL     1      18.858  16.567  42.806  0.00  0.00    +0.000 HD
ENDBRANCH  43  52
ENDBRANCH  40  41
ENDBRANCH  39  40
ENDBRANCH   4  39
TORSDOF 16
ENDMDL
MODEL 12
REMARK VINA RESULT:    -5.891      1.761      9.562
REMARK INTER + INTRA:         -13.036
REMARK INTER:                 -10.874
REMARK INTRA:                  -2.162
REMARK UNBOUND:                -3.356
REMARK  Name = opt41.pdb
REMARK  17 active torsions:
REMARK  status: ('A' for Active; 'I' for Inactive)
REMARK    1  A    between atoms: C_3  and  O_5
REMARK    2  A    between atoms: O_5  and  C_9
REMARK    3  A    between atoms: C_6  and  C_11
REMARK    4  A    between atoms: C_8  and  O_13
REMARK    5  A    between atoms: C_16  and  O_21
REMARK    6  A    between atoms: C_19  and  O_25
REMARK    7  A    between atoms: C_20  and  C_27
REMARK    8  A    between atoms: C_22  and  O_28
REMARK    9  A    between atoms: C_23  and  O_29
REMARK   10  A    between atoms: C_26  and  O_31
REMARK   11  A    between atoms: C_27  and  O_32
REMARK   12  A    between atoms: C_30  and  O_33
REMARK   13  A    between atoms: O_32  and  C_34
REMARK   14  A    between atoms: C_36  and  O_38
REMARK   15  A    between atoms: C_37  and  C_41
REMARK   16  A    between atoms: C_39  and  O_42
REMARK   17  A    between atoms: C_40  and  O_43
REMARK                            x       y       z     vdW  Elec       q    Type
REMARK                         _______ _______ _______ _____ _____    ______ ____
ROOT
ATOM      1  C   UNL     1      14.048  14.139  44.015  0.00  0.00    +0.000 C 
ATOM      2  O   UNL     1      12.708  14.661  44.168  0.00  0.00    +0.000 OA
ATOM      3  C   UNL     1      13.977  12.693  44.489  0.00  0.00    +0.000 C 
ATOM      4  C   UNL     1      11.720  14.167  43.243  0.00  0.00    +0.000 C 
ATOM      5  C   UNL     1      13.060  11.937  43.535  0.00  0.00    +0.000 C 
ATOM      6  C   UNL     1      11.673  12.606  43.296  0.00  0.00    +0.000 C 
ENDROOT
BRANCH   3   7
ATOM      7  O   UNL     1      13.487  12.642  45.853  0.00  0.00    +0.000 OA
ATOM      8  H   UNL     1      13.022  13.469  46.114  0.00  0.00    +0.000 HD
ENDBRANCH   3   7
BRANCH   5   9
ATOM      9  O   UNL     1      12.884  10.643  44.077  0.00  0.00    +0.000 OA
ATOM     10  H   UNL     1      13.468  10.635  44.828  0.00  0.00    +0.000 HD
ENDBRANCH   5   9
BRANCH   6  11
ATOM     11  O   UNL     1      11.200  12.100  42.039  0.00  0.00    +0.000 OA
ATOM     12  H   UNL     1      10.256  12.338  41.922  0.00  0.00    +0.000 HD
ENDBRANCH   6  11
BRANCH   1  13
ATOM     13  O   UNL     1      14.527  14.328  42.631  0.00  0.00    +0.000 OA
BRANCH  13  16
ATOM     14  O   UNL     1      17.274  13.641  41.960  0.00  0.00    +0.000 OA
ATOM     15  C   UNL     1      16.905  14.792  42.094  0.00  0.00    +0.000 A 
ATOM     16  C   UNL     1      15.497  15.299  42.331  0.00  0.00    +0.000 A 
ATOM     17  C   UNL     1      17.876  15.849  41.917  0.00  0.00    +0.000 A 
ATOM     18  C   UNL     1      15.256  16.433  42.340  0.00  0.00    +0.000 A 
ATOM     19  C   UNL     1      17.341  17.079  41.670  0.00  0.00    +0.000 A 
ATOM     20  C   UNL     1      19.294  15.636  41.792  0.00  0.00    +0.000 A 
ATOM     21  O   UNL     1      15.944  17.107  41.732  0.00  0.00    +0.000 OA
ATOM     22  C   UNL     1      18.147  17.988  40.869  0.00  0.00    +0.000 A 
ATOM     23  C   UNL     1      20.079  16.540  41.102  0.00  0.00    +0.000 A 
ATOM     24  C   UNL     1      19.498  17.697  40.599  0.00  0.00    +0.000 A 
BRANCH  18  25
ATOM     25  C   UNL     1      14.301  17.459  43.012  0.00  0.00    +0.000 A 
ATOM     26  C   UNL     1      13.072  17.855  42.409  0.00  0.00    +0.000 A 
ATOM     27  C   UNL     1      14.578  18.054  44.277  0.00  0.00    +0.000 A 
ATOM     28  C   UNL     1      12.179  18.740  43.051  0.00  0.00    +0.000 A 
ATOM     29  C   UNL     1      13.697  18.945  44.891  0.00  0.00    +0.000 A 
ATOM     30  C   UNL     1      12.487  19.283  44.295  0.00  0.00    +0.000 A 
BRANCH  28  31
ATOM     31  O   UNL     1      10.957  19.075  42.526  0.00  0.00    +0.000 OA
ATOM     32  H   UNL     1      10.583  18.393  41.950  0.00  0.00    +0.000 HD
ENDBRANCH  28  31
BRANCH  30  33
ATOM     33  O   UNL     1      11.623  20.150  44.932  0.00  0.00    +0.000 OA
ATOM     34  H   UNL     1      11.270  20.854  44.332  0.00  0.00    +0.000 HD
ENDBRANCH  30  33
ENDBRANCH  18  25
BRANCH  20  35
ATOM     35  O   UNL     1      19.837  14.521  42.361  0.00  0.00    +0.000 OA
ATOM     36  H   UNL     1      20.761  14.443  42.019  0.00  0.00    +0.000 HD
ENDBRANCH  20  35
BRANCH  24  37
ATOM     37  O   UNL     1      20.309  18.510  39.864  0.00  0.00    +0.000 OA
ATOM     38  H   UNL     1      19.908  19.369  39.697  0.00  0.00    +0.000 HD
ENDBRANCH  24  37
ENDBRANCH  13  16
ENDBRANCH   1  13
BRANCH   4  39
ATOM     39  C   UNL     1      10.415  14.881  43.676  0.00  0.00    +0.000 C 
BRANCH  39  40
ATOM     40  O   UNL     1       9.336  14.653  42.741  0.00  0.00    +0.000 OA
BRANCH  40  41
ATOM     41  C   UNL     1       8.041  14.451  43.339  0.00  0.00    +0.000 C 
ATOM     42  O   UNL     1       6.952  14.760  42.430  0.00  0.00    +0.000 OA
ATOM     43  C   UNL     1       7.933  13.004  43.850  0.00  0.00    +0.000 C 
ATOM     44  C   UNL     1       6.754  13.878  41.295  0.00  0.00    +0.000 C 
ATOM     45  C   UNL     1       7.713  12.000  42.695  0.00  0.00    +0.000 C 
ATOM     46  C   UNL     1       6.526  12.437  41.806  0.00  0.00    +0.000 C 
ATOM     47  C   UNL     1       5.524  14.404  40.528  0.00  0.00    +0.000 C 
BRANCH  45  48
ATOM     48  O   UNL     1       7.434  10.724  43.273  0.00  0.00    +0.000 OA
ATOM     49  H   UNL     1       6.486  10.751  43.521  0.00  0.00    +0.000 HD
ENDBRANCH  45  48
BRANCH  46  50
ATOM     50  O   UNL     1       6.364  11.544  40.694  0.00  0.00    +0.000 OA
ATOM     51  H   UNL     1       5.592  11.813  40.165  0.00  0.00    +0.000 HD
ENDBRANCH  46  50
BRANCH  43  52
ATOM     52  O   UNL     1       6.819  12.980  44.736  0.00  0.00    +0.000 OA
ATOM     53  H   UNL     1       6.396  12.120  44.567  0.00  0.00    +0.000 HD
ENDBRANCH  43  52
ENDBRANCH  40  41
ENDBRANCH  39  40
ENDBRANCH   4  39
TORSDOF 16
ENDMDL
MODEL 13
REMARK VINA RESULT:    -5.860      2.100      5.655
REMARK INTER + INTRA:         -12.984
REMARK INTER:                 -10.400
REMARK INTRA:                  -2.584
REMARK UNBOUND:                -3.356
REMARK  Name = opt41.pdb
REMARK  17 active torsions:
REMARK  status: ('A' for Active; 'I' for Inactive)
REMARK    1  A    between atoms: C_3  and  O_5
REMARK    2  A    between atoms: O_5  and  C_9
REMARK    3  A    between atoms: C_6  and  C_11
REMARK    4  A    between atoms: C_8  and  O_13
REMARK    5  A    between atoms: C_16  and  O_21
REMARK    6  A    between atoms: C_19  and  O_25
REMARK    7  A    between atoms: C_20  and  C_27
REMARK    8  A    between atoms: C_22  and  O_28
REMARK    9  A    between atoms: C_23  and  O_29
REMARK   10  A    between atoms: C_26  and  O_31
REMARK   11  A    between atoms: C_27  and  O_32
REMARK   12  A    between atoms: C_30  and  O_33
REMARK   13  A    between atoms: O_32  and  C_34
REMARK   14  A    between atoms: C_36  and  O_38
REMARK   15  A    between atoms: C_37  and  C_41
REMARK   16  A    between atoms: C_39  and  O_42
REMARK   17  A    between atoms: C_40  and  O_43
REMARK                            x       y       z     vdW  Elec       q    Type
REMARK                         _______ _______ _______ _____ _____    ______ ____
ROOT
ATOM      1  C   UNL     1      14.656  14.827  43.021  0.00  0.00    +0.000 C 
ATOM      2  O   UNL     1      16.069  15.125  43.090  0.00  0.00    +0.000 OA
ATOM      3  C   UNL     1      14.554  13.312  43.147  0.00  0.00    +0.000 C 
ATOM      4  C   UNL     1      16.694  14.962  44.378  0.00  0.00    +0.000 C 
ATOM      5  C   UNL     1      15.054  12.928  44.535  0.00  0.00    +0.000 C 
ATOM      6  C   UNL     1      16.448  13.514  44.911  0.00  0.00    +0.000 C 
ENDROOT
BRANCH   3   7
ATOM      7  O   UNL     1      15.333  12.674  42.103  0.00  0.00    +0.000 OA
ATOM      8  H   UNL     1      16.302  12.760  42.255  0.00  0.00    +0.000 HD
ENDBRANCH   3   7
BRANCH   5   9
ATOM      9  O   UNL     1      15.098  11.515  44.576  0.00  0.00    +0.000 OA
ATOM     10  H   UNL     1      16.002  11.314  44.363  0.00  0.00    +0.000 HD
ENDBRANCH   5   9
BRANCH   6  11
ATOM     11  O   UNL     1      16.503  13.518  46.345  0.00  0.00    +0.000 OA
ATOM     12  H   UNL     1      17.249  14.079  46.645  0.00  0.00    +0.000 HD
ENDBRANCH   6  11
BRANCH   1  13
ATOM     13  O   UNL     1      13.910  15.598  44.036  0.00  0.00    +0.000 OA
BRANCH  13  16
ATOM     14  O   UNL     1      14.013  18.469  44.501  0.00  0.00    +0.000 OA
ATOM     15  C   UNL     1      13.026  17.917  44.053  0.00  0.00    +0.000 A 
ATOM     16  C   UNL     1      12.867  16.462  43.660  0.00  0.00    +0.000 A 
ATOM     17  C   UNL     1      11.865  18.725  43.751  0.00  0.00    +0.000 A 
ATOM     18  C   UNL     1      11.902  16.075  43.147  0.00  0.00    +0.000 A 
ATOM     19  C   UNL     1      10.976  18.147  42.893  0.00  0.00    +0.000 A 
ATOM     20  C   UNL     1      11.718  20.107  44.127  0.00  0.00    +0.000 A 
ATOM     21  O   UNL     1      11.306  16.834  42.542  0.00  0.00    +0.000 OA
ATOM     22  C   UNL     1      10.198  19.051  42.059  0.00  0.00    +0.000 A 
ATOM     23  C   UNL     1      10.914  20.951  43.385  0.00  0.00    +0.000 A 
ATOM     24  C   UNL     1      10.187  20.434  42.321  0.00  0.00    +0.000 A 
BRANCH  18  25
ATOM     25  C   UNL     1      11.010  14.807  43.054  0.00  0.00    +0.000 A 
ATOM     26  C   UNL     1      11.107  13.892  41.965  0.00  0.00    +0.000 A 
ATOM     27  C   UNL     1      10.054  14.463  44.053  0.00  0.00    +0.000 A 
ATOM     28  C   UNL     1      10.339  12.709  41.915  0.00  0.00    +0.000 A 
ATOM     29  C   UNL     1       9.284  13.301  43.981  0.00  0.00    +0.000 A 
ATOM     30  C   UNL     1       9.429  12.409  42.925  0.00  0.00    +0.000 A 
BRANCH  28  31
ATOM     31  O   UNL     1      10.471  11.777  40.918  0.00  0.00    +0.000 OA
ATOM     32  H   UNL     1      10.866  12.130  40.108  0.00  0.00    +0.000 HD
ENDBRANCH  28  31
BRANCH  30  33
ATOM     33  O   UNL     1       8.671  11.256  42.887  0.00  0.00    +0.000 OA
ATOM     34  H   UNL     1       7.776  11.396  42.487  0.00  0.00    +0.000 HD
ENDBRANCH  30  33
ENDBRANCH  18  25
BRANCH  20  35
ATOM     35  O   UNL     1      12.395  20.558  45.222  0.00  0.00    +0.000 OA
ATOM     36  H   UNL     1      12.635  21.500  45.044  0.00  0.00    +0.000 HD
ENDBRANCH  20  35
BRANCH  24  37
ATOM     37  O   UNL     1       9.473  21.332  41.584  0.00  0.00    +0.000 OA
ATOM     38  H   UNL     1       9.791  21.394  40.678  0.00  0.00    +0.000 HD
ENDBRANCH  24  37
ENDBRANCH  13  16
ENDBRANCH   1  13
BRANCH   4  39
ATOM     39  C   UNL     1      18.179  15.326  44.118  0.00  0.00    +0.000 C 
BRANCH  39  40
ATOM     40  O   UNL     1      18.411  15.704  42.742  0.00  0.00    +0.000 OA
BRANCH  40  41
ATOM     41  C   UNL     1      19.006  17.002  42.556  0.00  0.00    +0.000 C 
ATOM     42  O   UNL     1      19.291  17.291  41.162  0.00  0.00    +0.000 OA
ATOM     43  C   UNL     1      18.087  18.077  43.162  0.00  0.00    +0.000 C 
ATOM     44  C   UNL     1      18.161  17.494  40.273  0.00  0.00    +0.000 C 
ATOM     45  C   UNL     1      16.858  18.355  42.266  0.00  0.00    +0.000 C 
ATOM     46  C   UNL     1      17.294  18.655  40.813  0.00  0.00    +0.000 C 
ATOM     47  C   UNL     1      18.738  17.822  38.882  0.00  0.00    +0.000 C 
BRANCH  45  48
ATOM     48  O   UNL     1      16.174  19.488  42.803  0.00  0.00    +0.000 OA
ATOM     49  H   UNL     1      16.855  20.187  42.891  0.00  0.00    +0.000 HD
ENDBRANCH  45  48
BRANCH  46  50
ATOM     50  O   UNL     1      16.152  18.844  39.965  0.00  0.00    +0.000 OA
ATOM     51  H   UNL     1      15.543  19.487  40.370  0.00  0.00    +0.000 HD
ENDBRANCH  46  50
BRANCH  43  52
ATOM     52  O   UNL     1      18.881  19.253  43.280  0.00  0.00    +0.000 OA
ATOM     53  H   UNL     1      19.018  19.545  42.361  0.00  0.00    +0.000 HD
ENDBRANCH  43  52
ENDBRANCH  40  41
ENDBRANCH  39  40
ENDBRANCH   4  39
TORSDOF 16
ENDMDL
MODEL 14
REMARK VINA RESULT:    -5.842      1.991      5.422
REMARK INTER + INTRA:         -12.955
REMARK INTER:                 -10.134
REMARK INTRA:                  -2.822
REMARK UNBOUND:                -3.356
REMARK  Name = opt41.pdb
REMARK  17 active torsions:
REMARK  status: ('A' for Active; 'I' for Inactive)
REMARK    1  A    between atoms: C_3  and  O_5
REMARK    2  A    between atoms: O_5  and  C_9
REMARK    3  A    between atoms: C_6  and  C_11
REMARK    4  A    between atoms: C_8  and  O_13
REMARK    5  A    between atoms: C_16  and  O_21
REMARK    6  A    between atoms: C_19  and  O_25
REMARK    7  A    between atoms: C_20  and  C_27
REMARK    8  A    between atoms: C_22  and  O_28
REMARK    9  A    between atoms: C_23  and  O_29
REMARK   10  A    between atoms: C_26  and  O_31
REMARK   11  A    between atoms: C_27  and  O_32
REMARK   12  A    between atoms: C_30  and  O_33
REMARK   13  A    between atoms: O_32  and  C_34
REMARK   14  A    between atoms: C_36  and  O_38
REMARK   15  A    between atoms: C_37  and  C_41
REMARK   16  A    between atoms: C_39  and  O_42
REMARK   17  A    between atoms: C_40  and  O_43
REMARK                            x       y       z     vdW  Elec       q    Type
REMARK                         _______ _______ _______ _____ _____    ______ ____
ROOT
ATOM      1  C   UNL     1      13.994  14.375  43.027  0.00  0.00    +0.000 C 
ATOM      2  O   UNL     1      15.286  15.020  43.082  0.00  0.00    +0.000 OA
ATOM      3  C   UNL     1      14.281  12.881  43.119  0.00  0.00    +0.000 C 
ATOM      4  C   UNL     1      15.959  14.997  44.356  0.00  0.00    +0.000 C 
ATOM      5  C   UNL     1      14.890  12.611  44.490  0.00  0.00    +0.000 C 
ATOM      6  C   UNL     1      16.098  13.524  44.858  0.00  0.00    +0.000 C 
ENDROOT
BRANCH   3   7
ATOM      7  O   UNL     1      15.174  12.482  42.049  0.00  0.00    +0.000 OA
ATOM      8  H   UNL     1      14.815  12.705  41.160  0.00  0.00    +0.000 HD
ENDBRANCH   3   7
BRANCH   5   9
ATOM      9  O   UNL     1      15.291  11.254  44.497  0.00  0.00    +0.000 OA
ATOM     10  H   UNL     1      16.108  11.261  44.011  0.00  0.00    +0.000 HD
ENDBRANCH   5   9
BRANCH   6  11
ATOM     11  O   UNL     1      16.180  13.514  46.291  0.00  0.00    +0.000 OA
ATOM     12  H   UNL     1      16.561  12.663  46.594  0.00  0.00    +0.000 HD
ENDBRANCH   6  11
BRANCH   1  13
ATOM     13  O   UNL     1      13.097  14.912  44.072  0.00  0.00    +0.000 OA
BRANCH  13  16
ATOM     14  O   UNL     1      11.246  12.672  44.227  0.00  0.00    +0.000 OA
ATOM     15  C   UNL     1      10.900  13.779  43.861  0.00  0.00    +0.000 A 
ATOM     16  C   UNL     1      11.720  15.053  43.835  0.00  0.00    +0.000 A 
ATOM     17  C   UNL     1       9.517  13.975  43.485  0.00  0.00    +0.000 A 
ATOM     18  C   UNL     1      11.244  16.073  43.558  0.00  0.00    +0.000 A 
ATOM     19  C   UNL     1       9.105  15.276  43.489  0.00  0.00    +0.000 A 
ATOM     20  C   UNL     1       8.561  12.912  43.320  0.00  0.00    +0.000 A 
ATOM     21  O   UNL     1      10.129  16.188  43.761  0.00  0.00    +0.000 OA
ATOM     22  C   UNL     1       7.697  15.509  43.774  0.00  0.00    +0.000 A 
ATOM     23  C   UNL     1       7.213  13.148  43.509  0.00  0.00    +0.000 A 
ATOM     24  C   UNL     1       6.782  14.439  43.781  0.00  0.00    +0.000 A 
BRANCH  18  25
ATOM     25  C   UNL     1      11.594  17.422  42.871  0.00  0.00    +0.000 A 
ATOM     26  C   UNL     1      11.660  18.646  43.598  0.00  0.00    +0.000 A 
ATOM     27  C   UNL     1      11.893  17.523  41.481  0.00  0.00    +0.000 A 
ATOM     28  C   UNL     1      12.039  19.859  42.982  0.00  0.00    +0.000 A 
ATOM     29  C   UNL     1      12.245  18.732  40.880  0.00  0.00    +0.000 A 
ATOM     30  C   UNL     1      12.337  19.903  41.623  0.00  0.00    +0.000 A 
BRANCH  28  31
ATOM     31  O   UNL     1      12.183  21.033  43.676  0.00  0.00    +0.000 OA
ATOM     32  H   UNL     1      12.410  20.906  44.608  0.00  0.00    +0.000 HD
ENDBRANCH  28  31
BRANCH  30  33
ATOM     33  O   UNL     1      12.707  21.082  41.010  0.00  0.00    +0.000 OA
ATOM     34  H   UNL     1      12.053  21.387  40.331  0.00  0.00    +0.000 HD
ENDBRANCH  30  33
ENDBRANCH  18  25
BRANCH  20  35
ATOM     35  O   UNL     1       9.020  11.672  42.983  0.00  0.00    +0.000 OA
ATOM     36  H   UNL     1       9.016  11.622  41.996  0.00  0.00    +0.000 HD
ENDBRANCH  20  35
BRANCH  24  37
ATOM     37  O   UNL     1       5.451  14.592  44.032  0.00  0.00    +0.000 OA
ATOM     38  H   UNL     1       5.157  14.057  44.776  0.00  0.00    +0.000 HD
ENDBRANCH  24  37
ENDBRANCH  13  16
ENDBRANCH   1  13
BRANCH   4  39
ATOM     39  C   UNL     1      17.297  15.730  44.083  0.00  0.00    +0.000 C 
BRANCH  39  40
ATOM     40  O   UNL     1      17.088  17.057  43.548  0.00  0.00    +0.000 OA
BRANCH  40  41
ATOM     41  C   UNL     1      17.550  18.134  44.384  0.00  0.00    +0.000 C 
ATOM     42  O   UNL     1      18.112  19.233  43.621  0.00  0.00    +0.000 OA
ATOM     43  C   UNL     1      16.395  18.620  45.277  0.00  0.00    +0.000 C 
ATOM     44  C   UNL     1      17.202  20.024  42.814  0.00  0.00    +0.000 C 
ATOM     45  C   UNL     1      15.382  19.481  44.487  0.00  0.00    +0.000 C 
ATOM     46  C   UNL     1      16.101  20.617  43.725  0.00  0.00    +0.000 C 
ATOM     47  C   UNL     1      18.040  21.135  42.150  0.00  0.00    +0.000 C 
BRANCH  45  48
ATOM     48  O   UNL     1      14.462  20.041  45.425  0.00  0.00    +0.000 OA
ATOM     49  H   UNL     1      14.749  19.710  46.302  0.00  0.00    +0.000 HD
ENDBRANCH  45  48
BRANCH  46  50
ATOM     50  O   UNL     1      15.171  21.373  42.936  0.00  0.00    +0.000 OA
ATOM     51  H   UNL     1      14.260  21.135  43.184  0.00  0.00    +0.000 HD
ENDBRANCH  46  50
BRANCH  43  52
ATOM     52  O   UNL     1      16.994  19.397  46.309  0.00  0.00    +0.000 OA
ATOM     53  H   UNL     1      16.327  19.409  47.019  0.00  0.00    +0.000 HD
ENDBRANCH  43  52
ENDBRANCH  40  41
ENDBRANCH  39  40
ENDBRANCH   4  39
TORSDOF 16
ENDMDL
MODEL 15
REMARK VINA RESULT:    -5.716      1.230      2.100
REMARK INTER + INTRA:         -12.747
REMARK INTER:                  -9.752
REMARK INTRA:                  -2.995
REMARK UNBOUND:                -3.356
REMARK  Name = opt41.pdb
REMARK  17 active torsions:
REMARK  status: ('A' for Active; 'I' for Inactive)
REMARK    1  A    between atoms: C_3  and  O_5
REMARK    2  A    between atoms: O_5  and  C_9
REMARK    3  A    between atoms: C_6  and  C_11
REMARK    4  A    between atoms: C_8  and  O_13
REMARK    5  A    between atoms: C_16  and  O_21
REMARK    6  A    between atoms: C_19  and  O_25
REMARK    7  A    between atoms: C_20  and  C_27
REMARK    8  A    between atoms: C_22  and  O_28
REMARK    9  A    between atoms: C_23  and  O_29
REMARK   10  A    between atoms: C_26  and  O_31
REMARK   11  A    between atoms: C_27  and  O_32
REMARK   12  A    between atoms: C_30  and  O_33
REMARK   13  A    between atoms: O_32  and  C_34
REMARK   14  A    between atoms: C_36  and  O_38
REMARK   15  A    between atoms: C_37  and  C_41
REMARK   16  A    between atoms: C_39  and  O_42
REMARK   17  A    between atoms: C_40  and  O_43
REMARK                            x       y       z     vdW  Elec       q    Type
REMARK                         _______ _______ _______ _____ _____    ______ ____
ROOT
ATOM      1  C   UNL     1      11.251  17.580  43.410  0.00  0.00    +0.000 C 
ATOM      2  O   UNL     1      12.651  17.724  43.082  0.00  0.00    +0.000 OA
ATOM      3  C   UNL     1      10.708  19.000  43.512  0.00  0.00    +0.000 C 
ATOM      4  C   UNL     1      12.952  18.179  41.748  0.00  0.00    +0.000 C 
ATOM      5  C   UNL     1      10.810  19.635  42.130  0.00  0.00    +0.000 C 
ATOM      6  C   UNL     1      12.216  19.528  41.466  0.00  0.00    +0.000 C 
ENDROOT
BRANCH   3   7
ATOM      7  O   UNL     1      11.461  19.748  44.501  0.00  0.00    +0.000 OA
ATOM      8  H   UNL     1      12.331  19.332  44.702  0.00  0.00    +0.000 HD
ENDBRANCH   3   7
BRANCH   5   9
ATOM      9  O   UNL     1      10.450  20.995  42.279  0.00  0.00    +0.000 OA
ATOM     10  H   UNL     1       9.504  20.966  42.370  0.00  0.00    +0.000 HD
ENDBRANCH   5   9
BRANCH   6  11
ATOM     11  O   UNL     1      11.997  19.665  40.054  0.00  0.00    +0.000 OA
ATOM     12  H   UNL     1      12.249  18.834  39.599  0.00  0.00    +0.000 HD
ENDBRANCH   6  11
BRANCH   1  13
ATOM     13  O   UNL     1      10.571  16.713  42.426  0.00  0.00    +0.000 OA
BRANCH  13  16
ATOM     14  O   UNL     1       7.698  16.783  42.881  0.00  0.00    +0.000 OA
ATOM     15  C   UNL     1       8.372  15.801  43.127  0.00  0.00    +0.000 A 
ATOM     16  C   UNL     1       9.844  15.584  42.842  0.00  0.00    +0.000 A 
ATOM     17  C   UNL     1       7.712  14.634  43.671  0.00  0.00    +0.000 A 
ATOM     18  C   UNL     1      10.353  14.560  43.033  0.00  0.00    +0.000 A 
ATOM     19  C   UNL     1       8.411  13.470  43.537  0.00  0.00    +0.000 A 
ATOM     20  C   UNL     1       6.349  14.613  44.132  0.00  0.00    +0.000 A 
ATOM     21  O   UNL     1       9.684  13.640  42.984  0.00  0.00    +0.000 OA
ATOM     22  C   UNL     1       7.624  12.250  43.433  0.00  0.00    +0.000 A 
ATOM     23  C   UNL     1       5.623  13.439  44.113  0.00  0.00    +0.000 A 
ATOM     24  C   UNL     1       6.246  12.262  43.720  0.00  0.00    +0.000 A 
BRANCH  18  25
ATOM     25  C   UNL     1      11.719  13.951  43.453  0.00  0.00    +0.000 A 
ATOM     26  C   UNL     1      12.624  13.395  42.503  0.00  0.00    +0.000 A 
ATOM     27  C   UNL     1      12.167  13.926  44.806  0.00  0.00    +0.000 A 
ATOM     28  C   UNL     1      13.890  12.899  42.881  0.00  0.00    +0.000 A 
ATOM     29  C   UNL     1      13.412  13.412  45.170  0.00  0.00    +0.000 A 
ATOM     30  C   UNL     1      14.289  12.911  44.215  0.00  0.00    +0.000 A 
BRANCH  28  31
ATOM     31  O   UNL     1      14.807  12.430  41.976  0.00  0.00    +0.000 OA
ATOM     32  H   UNL     1      15.486  13.079  41.741  0.00  0.00    +0.000 HD
ENDBRANCH  28  31
BRANCH  30  33
ATOM     33  O   UNL     1      15.524  12.428  44.597  0.00  0.00    +0.000 OA
ATOM     34  H   UNL     1      15.830  11.666  44.042  0.00  0.00    +0.000 HD
ENDBRANCH  30  33
ENDBRANCH  18  25
BRANCH  20  35
ATOM     35  O   UNL     1       5.795  15.779  44.577  0.00  0.00    +0.000 OA
ATOM     36  H   UNL     1       6.387  16.511  44.278  0.00  0.00    +0.000 HD
ENDBRANCH  20  35
BRANCH  24  37
ATOM     37  O   UNL     1       5.456  11.153  43.651  0.00  0.00    +0.000 OA
ATOM     38  H   UNL     1       5.970  10.340  43.629  0.00  0.00    +0.000 HD
ENDBRANCH  24  37
ENDBRANCH  13  16
ENDBRANCH   1  13
BRANCH   4  39
ATOM     39  C   UNL     1      14.500  18.254  41.721  0.00  0.00    +0.000 C 
BRANCH  39  40
ATOM     40  O   UNL     1      15.065  18.267  43.053  0.00  0.00    +0.000 OA
BRANCH  40  41
ATOM     41  C   UNL     1      16.494  18.109  43.112  0.00  0.00    +0.000 C 
ATOM     42  O   UNL     1      17.020  18.282  44.454  0.00  0.00    +0.000 OA
ATOM     43  C   UNL     1      16.881  16.733  42.546  0.00  0.00    +0.000 C 
ATOM     44  C   UNL     1      16.697  17.266  45.439  0.00  0.00    +0.000 C 
ATOM     45  C   UNL     1      16.572  15.592  43.543  0.00  0.00    +0.000 C 
ATOM     46  C   UNL     1      17.190  15.892  44.929  0.00  0.00    +0.000 C 
ATOM     47  C   UNL     1      17.405  17.667  46.747  0.00  0.00    +0.000 C 
BRANCH  45  48
ATOM     48  O   UNL     1      17.135  14.389  43.019  0.00  0.00    +0.000 OA
ATOM     49  H   UNL     1      16.794  14.319  42.103  0.00  0.00    +0.000 HD
ENDBRANCH  45  48
BRANCH  46  50
ATOM     50  O   UNL     1      16.844  14.869  45.874  0.00  0.00    +0.000 OA
ATOM     51  H   UNL     1      16.209  15.220  46.523  0.00  0.00    +0.000 HD
ENDBRANCH  46  50
BRANCH  43  52
ATOM     52  O   UNL     1      18.281  16.790  42.289  0.00  0.00    +0.000 OA
ATOM     53  H   UNL     1      18.344  17.089  41.365  0.00  0.00    +0.000 HD
ENDBRANCH  43  52
ENDBRANCH  40  41
ENDBRANCH  39  40
ENDBRANCH   4  39
TORSDOF 16
ENDMDL
MODEL 16
REMARK VINA RESULT:    -5.659      1.744      2.356
REMARK INTER + INTRA:         -12.653
REMARK INTER:                 -10.244
REMARK INTRA:                  -2.409
REMARK UNBOUND:                -3.356
REMARK  Name = opt41.pdb
REMARK  17 active torsions:
REMARK  status: ('A' for Active; 'I' for Inactive)
REMARK    1  A    between atoms: C_3  and  O_5
REMARK    2  A    between atoms: O_5  and  C_9
REMARK    3  A    between atoms: C_6  and  C_11
REMARK    4  A    between atoms: C_8  and  O_13
REMARK    5  A    between atoms: C_16  and  O_21
REMARK    6  A    between atoms: C_19  and  O_25
REMARK    7  A    between atoms: C_20  and  C_27
REMARK    8  A    between atoms: C_22  and  O_28
REMARK    9  A    between atoms: C_23  and  O_29
REMARK   10  A    between atoms: C_26  and  O_31
REMARK   11  A    between atoms: C_27  and  O_32
REMARK   12  A    between atoms: C_30  and  O_33
REMARK   13  A    between atoms: O_32  and  C_34
REMARK   14  A    between atoms: C_36  and  O_38
REMARK   15  A    between atoms: C_37  and  C_41
REMARK   16  A    between atoms: C_39  and  O_42
REMARK   17  A    between atoms: C_40  and  O_43
REMARK                            x       y       z     vdW  Elec       q    Type
REMARK                         _______ _______ _______ _____ _____    ______ ____
ROOT
ATOM      1  C   UNL     1      11.141  18.099  43.395  0.00  0.00    +0.000 C 
ATOM      2  O   UNL     1      12.363  18.758  43.801  0.00  0.00    +0.000 OA
ATOM      3  C   UNL     1      11.200  18.035  41.874  0.00  0.00    +0.000 C 
ATOM      4  C   UNL     1      13.578  17.998  43.652  0.00  0.00    +0.000 C 
ATOM      5  C   UNL     1      12.373  17.139  41.493  0.00  0.00    +0.000 C 
ATOM      6  C   UNL     1      13.724  17.509  42.176  0.00  0.00    +0.000 C 
ENDROOT
BRANCH   3   7
ATOM      7  O   UNL     1      11.348  19.371  41.328  0.00  0.00    +0.000 OA
ATOM      8  H   UNL     1      12.002  19.909  41.829  0.00  0.00    +0.000 HD
ENDBRANCH   3   7
BRANCH   5   9
ATOM      9  O   UNL     1      12.505  17.217  40.087  0.00  0.00    +0.000 OA
ATOM     10  H   UNL     1      13.346  16.805  39.920  0.00  0.00    +0.000 HD
ENDBRANCH   5   9
BRANCH   6  11
ATOM     11  O   UNL     1      14.522  16.316  42.145  0.00  0.00    +0.000 OA
ATOM     12  H   UNL     1      14.495  15.879  43.022  0.00  0.00    +0.000 HD
ENDBRANCH   6  11
BRANCH   1  13
ATOM     13  O   UNL     1      10.999  16.797  44.078  0.00  0.00    +0.000 OA
BRANCH  13  16
ATOM     14  O   UNL     1       8.134  17.177  43.728  0.00  0.00    +0.000 OA
ATOM     15  C   UNL     1       8.680  16.110  43.519  0.00  0.00    +0.000 A 
ATOM     16  C   UNL     1      10.163  15.797  43.553  0.00  0.00    +0.000 A 
ATOM     17  C   UNL     1       7.866  14.995  43.088  0.00  0.00    +0.000 A 
ATOM     18  C   UNL     1      10.570  14.760  43.234  0.00  0.00    +0.000 A 
ATOM     19  C   UNL     1       8.556  13.984  42.486  0.00  0.00    +0.000 A 
ATOM     20  C   UNL     1       6.426  14.997  43.079  0.00  0.00    +0.000 A 
ATOM     21  O   UNL     1       9.942  14.172  42.487  0.00  0.00    +0.000 OA
ATOM     22  C   UNL     1       7.832  13.206  41.492  0.00  0.00    +0.000 A 
ATOM     23  C   UNL     1       5.732  14.197  42.192  0.00  0.00    +0.000 A 
ATOM     24  C   UNL     1       6.436  13.332  41.365  0.00  0.00    +0.000 A 
BRANCH  18  25
ATOM     25  C   UNL     1      11.717  13.763  43.555  0.00  0.00    +0.000 A 
ATOM     26  C   UNL     1      12.811  14.115  44.398  0.00  0.00    +0.000 A 
ATOM     27  C   UNL     1      11.744  12.430  43.050  0.00  0.00    +0.000 A 
ATOM     28  C   UNL     1      13.819  13.187  44.738  0.00  0.00    +0.000 A 
ATOM     29  C   UNL     1      12.758  11.529  43.375  0.00  0.00    +0.000 A 
ATOM     30  C   UNL     1      13.792  11.890  44.231  0.00  0.00    +0.000 A 
BRANCH  28  31
ATOM     31  O   UNL     1      14.838  13.479  45.607  0.00  0.00    +0.000 OA
ATOM     32  H   UNL     1      15.675  13.683  45.167  0.00  0.00    +0.000 HD
ENDBRANCH  28  31
BRANCH  30  33
ATOM     33  O   UNL     1      14.772  10.975  44.553  0.00  0.00    +0.000 OA
ATOM     34  H   UNL     1      14.534  10.048  44.298  0.00  0.00    +0.000 HD
ENDBRANCH  30  33
ENDBRANCH  18  25
BRANCH  20  35
ATOM     35  O   UNL     1       5.772  15.810  43.958  0.00  0.00    +0.000 OA
ATOM     36  H   UNL     1       6.436  16.104  44.628  0.00  0.00    +0.000 HD
ENDBRANCH  20  35
BRANCH  24  37
ATOM     37  O   UNL     1       5.698  12.627  40.461  0.00  0.00    +0.000 OA
ATOM     38  H   UNL     1       6.243  12.239  39.769  0.00  0.00    +0.000 HD
ENDBRANCH  24  37
ENDBRANCH  13  16
ENDBRANCH   1  13
BRANCH   4  39
ATOM     39  C   UNL     1      14.685  18.969  44.138  0.00  0.00    +0.000 C 
BRANCH  39  40
ATOM     40  O   UNL     1      15.986  18.338  44.162  0.00  0.00    +0.000 OA
BRANCH  40  41
ATOM     41  C   UNL     1      16.172  17.358  45.200  0.00  0.00    +0.000 C 
ATOM     42  O   UNL     1      16.299  16.009  44.679  0.00  0.00    +0.000 OA
ATOM     43  C   UNL     1      17.400  17.736  46.047  0.00  0.00    +0.000 C 
ATOM     44  C   UNL     1      17.499  15.689  43.928  0.00  0.00    +0.000 C 
ATOM     45  C   UNL     1      18.724  17.417  45.314  0.00  0.00    +0.000 C 
ATOM     46  C   UNL     1      18.737  15.954  44.815  0.00  0.00    +0.000 C 
ATOM     47  C   UNL     1      17.398  14.203  43.533  0.00  0.00    +0.000 C 
BRANCH  45  48
ATOM     48  O   UNL     1      19.793  17.617  46.240  0.00  0.00    +0.000 OA
ATOM     49  H   UNL     1      20.483  16.969  45.986  0.00  0.00    +0.000 HD
ENDBRANCH  45  48
BRANCH  46  50
ATOM     50  O   UNL     1      19.935  15.678  44.074  0.00  0.00    +0.000 OA
ATOM     51  H   UNL     1      20.535  16.443  44.121  0.00  0.00    +0.000 HD
ENDBRANCH  46  50
BRANCH  43  52
ATOM     52  O   UNL     1      17.307  16.968  47.242  0.00  0.00    +0.000 OA
ATOM     53  H   UNL     1      16.436  16.536  47.184  0.00  0.00    +0.000 HD
ENDBRANCH  43  52
ENDBRANCH  40  41
ENDBRANCH  39  40
ENDBRANCH   4  39
TORSDOF 16
ENDMDL
MODEL 17
REMARK VINA RESULT:    -5.645      2.472      8.238
REMARK INTER + INTRA:         -12.632
REMARK INTER:                  -9.915
REMARK INTRA:                  -2.716
REMARK UNBOUND:                -3.356
REMARK  Name = opt41.pdb
REMARK  17 active torsions:
REMARK  status: ('A' for Active; 'I' for Inactive)
REMARK    1  A    between atoms: C_3  and  O_5
REMARK    2  A    between atoms: O_5  and  C_9
REMARK    3  A    between atoms: C_6  and  C_11
REMARK    4  A    between atoms: C_8  and  O_13
REMARK    5  A    between atoms: C_16  and  O_21
REMARK    6  A    between atoms: C_19  and  O_25
REMARK    7  A    between atoms: C_20  and  C_27
REMARK    8  A    between atoms: C_22  and  O_28
REMARK    9  A    between atoms: C_23  and  O_29
REMARK   10  A    between atoms: C_26  and  O_31
REMARK   11  A    between atoms: C_27  and  O_32
REMARK   12  A    between atoms: C_30  and  O_33
REMARK   13  A    between atoms: O_32  and  C_34
REMARK   14  A    between atoms: C_36  and  O_38
REMARK   15  A    between atoms: C_37  and  C_41
REMARK   16  A    between atoms: C_39  and  O_42
REMARK   17  A    between atoms: C_40  and  O_43
REMARK                            x       y       z     vdW  Elec       q    Type
REMARK                         _______ _______ _______ _____ _____    ______ ____
ROOT
ATOM      1  C   UNL     1      12.714  18.282  42.585  0.00  0.00    +0.000 C 
ATOM      2  O   UNL     1      11.883  17.260  41.989  0.00  0.00    +0.000 OA
ATOM      3  C   UNL     1      12.106  19.608  42.146  0.00  0.00    +0.000 C 
ATOM      4  C   UNL     1      10.565  17.101  42.549  0.00  0.00    +0.000 C 
ATOM      5  C   UNL     1      10.715  19.706  42.764  0.00  0.00    +0.000 C 
ATOM      6  C   UNL     1       9.804  18.465  42.518  0.00  0.00    +0.000 C 
ENDROOT
BRANCH   3   7
ATOM      7  O   UNL     1      12.054  19.674  40.699  0.00  0.00    +0.000 OA
ATOM      8  H   UNL     1      11.161  19.453  40.346  0.00  0.00    +0.000 HD
ENDBRANCH   3   7
BRANCH   5   9
ATOM      9  O   UNL     1      10.109  20.863  42.222  0.00  0.00    +0.000 OA
ATOM     10  H   UNL     1       9.995  20.646  41.304  0.00  0.00    +0.000 HD
ENDBRANCH   5   9
BRANCH   6  11
ATOM     11  O   UNL     1       8.819  18.485  43.561  0.00  0.00    +0.000 OA
ATOM     12  H   UNL     1       7.968  18.817  43.204  0.00  0.00    +0.000 HD
ENDBRANCH   6  11
BRANCH   1  13
ATOM     13  O   UNL     1      12.817  18.085  44.045  0.00  0.00    +0.000 OA
BRANCH  13  16
ATOM     14  O   UNL     1      14.246  20.496  44.830  0.00  0.00    +0.000 OA
ATOM     15  C   UNL     1      14.730  19.386  44.942  0.00  0.00    +0.000 A 
ATOM     16  C   UNL     1      14.070  18.048  44.680  0.00  0.00    +0.000 A 
ATOM     17  C   UNL     1      16.068  19.273  45.480  0.00  0.00    +0.000 A 
ATOM     18  C   UNL     1      14.607  17.050  44.923  0.00  0.00    +0.000 A 
ATOM     19  C   UNL     1      16.387  18.036  45.959  0.00  0.00    +0.000 A 
ATOM     20  C   UNL     1      16.949  20.388  45.707  0.00  0.00    +0.000 A 
ATOM     21  O   UNL     1      15.389  17.079  45.750  0.00  0.00    +0.000 OA
ATOM     22  C   UNL     1      17.356  17.991  47.044  0.00  0.00    +0.000 A 
ATOM     23  C   UNL     1      17.927  20.320  46.681  0.00  0.00    +0.000 A 
ATOM     24  C   UNL     1      18.103  19.135  47.383  0.00  0.00    +0.000 A 
BRANCH  18  25
ATOM     25  C   UNL     1      14.714  15.583  44.421  0.00  0.00    +0.000 A 
ATOM     26  C   UNL     1      13.790  14.577  44.826  0.00  0.00    +0.000 A 
ATOM     27  C   UNL     1      15.723  15.152  43.511  0.00  0.00    +0.000 A 
ATOM     28  C   UNL     1      13.853  13.260  44.320  0.00  0.00    +0.000 A 
ATOM     29  C   UNL     1      15.788  13.843  43.035  0.00  0.00    +0.000 A 
ATOM     30  C   UNL     1      14.849  12.891  43.419  0.00  0.00    +0.000 A 
BRANCH  28  31
ATOM     31  O   UNL     1      12.931  12.296  44.635  0.00  0.00    +0.000 OA
ATOM     32  H   UNL     1      12.924  11.551  44.018  0.00  0.00    +0.000 HD
ENDBRANCH  28  31
BRANCH  30  33
ATOM     33  O   UNL     1      14.922  11.608  42.918  0.00  0.00    +0.000 OA
ATOM     34  H   UNL     1      14.139  11.052  43.163  0.00  0.00    +0.000 HD
ENDBRANCH  30  33
ENDBRANCH  18  25
BRANCH  20  35
ATOM     35  O   UNL     1      16.788  21.509  44.946  0.00  0.00    +0.000 OA
ATOM     36  H   UNL     1      16.563  21.208  44.033  0.00  0.00    +0.000 HD
ENDBRANCH  20  35
BRANCH  24  37
ATOM     37  O   UNL     1      19.032  19.157  48.381  0.00  0.00    +0.000 OA
ATOM     38  H   UNL     1      18.999  19.971  48.892  0.00  0.00    +0.000 HD
ENDBRANCH  24  37
ENDBRANCH  13  16
ENDBRANCH   1  13
BRANCH   4  39
ATOM     39  C   UNL     1       9.932  15.973  41.695  0.00  0.00    +0.000 C 
BRANCH  39  40
ATOM     40  O   UNL     1       8.705  15.476  42.277  0.00  0.00    +0.000 OA
BRANCH  40  41
ATOM     41  C   UNL     1       8.846  14.866  43.573  0.00  0.00    +0.000 C 
ATOM     42  O   UNL     1       7.589  14.355  44.090  0.00  0.00    +0.000 OA
ATOM     43  C   UNL     1       9.902  13.750  43.501  0.00  0.00    +0.000 C 
ATOM     44  C   UNL     1       7.006  13.205  43.424  0.00  0.00    +0.000 C 
ATOM     45  C   UNL     1       9.353  12.482  42.807  0.00  0.00    +0.000 C 
ATOM     46  C   UNL     1       8.019  12.037  43.451  0.00  0.00    +0.000 C 
ATOM     47  C   UNL     1       5.717  12.849  44.190  0.00  0.00    +0.000 C 
BRANCH  45  48
ATOM     48  O   UNL     1      10.325  11.446  42.957  0.00  0.00    +0.000 OA
ATOM     49  H   UNL     1      10.546  11.432  43.912  0.00  0.00    +0.000 HD
ENDBRANCH  45  48
BRANCH  46  50
ATOM     50  O   UNL     1       7.473  10.902  42.763  0.00  0.00    +0.000 OA
ATOM     51  H   UNL     1       8.065  10.641  42.036  0.00  0.00    +0.000 HD
ENDBRANCH  46  50
BRANCH  43  52
ATOM     52  O   UNL     1      10.257  13.454  44.847  0.00  0.00    +0.000 OA
ATOM     53  H   UNL     1       9.446  13.077  45.233  0.00  0.00    +0.000 HD
ENDBRANCH  43  52
ENDBRANCH  40  41
ENDBRANCH  39  40
ENDBRANCH   4  39
TORSDOF 16
ENDMDL
MODEL 18
REMARK VINA RESULT:    -5.543      1.749      5.164
REMARK INTER + INTRA:         -12.464
REMARK INTER:                  -9.681
REMARK INTRA:                  -2.782
REMARK UNBOUND:                -3.356
REMARK  Name = opt41.pdb
REMARK  17 active torsions:
REMARK  status: ('A' for Active; 'I' for Inactive)
REMARK    1  A    between atoms: C_3  and  O_5
REMARK    2  A    between atoms: O_5  and  C_9
REMARK    3  A    between atoms: C_6  and  C_11
REMARK    4  A    between atoms: C_8  and  O_13
REMARK    5  A    between atoms: C_16  and  O_21
REMARK    6  A    between atoms: C_19  and  O_25
REMARK    7  A    between atoms: C_20  and  C_27
REMARK    8  A    between atoms: C_22  and  O_28
REMARK    9  A    between atoms: C_23  and  O_29
REMARK   10  A    between atoms: C_26  and  O_31
REMARK   11  A    between atoms: C_27  and  O_32
REMARK   12  A    between atoms: C_30  and  O_33
REMARK   13  A    between atoms: O_32  and  C_34
REMARK   14  A    between atoms: C_36  and  O_38
REMARK   15  A    between atoms: C_37  and  C_41
REMARK   16  A    between atoms: C_39  and  O_42
REMARK   17  A    between atoms: C_40  and  O_43
REMARK                            x       y       z     vdW  Elec       q    Type
REMARK                         _______ _______ _______ _____ _____    ______ ____
ROOT
ATOM      1  C   UNL     1      14.137  14.452  43.116  0.00  0.00    +0.000 C 
ATOM      2  O   UNL     1      15.464  15.023  43.145  0.00  0.00    +0.000 OA
ATOM      3  C   UNL     1      14.342  12.943  43.178  0.00  0.00    +0.000 C 
ATOM      4  C   UNL     1      16.168  14.941  44.400  0.00  0.00    +0.000 C 
ATOM      5  C   UNL     1      14.972  12.617  44.528  0.00  0.00    +0.000 C 
ATOM      6  C   UNL     1      16.238  13.455  44.876  0.00  0.00    +0.000 C 
ENDROOT
BRANCH   3   7
ATOM      7  O   UNL     1      15.183  12.512  42.078  0.00  0.00    +0.000 OA
ATOM      8  H   UNL     1      15.082  11.552  41.884  0.00  0.00    +0.000 HD
ENDBRANCH   3   7
BRANCH   5   9
ATOM      9  O   UNL     1      15.296  11.240  44.504  0.00  0.00    +0.000 OA
ATOM     10  H   UNL     1      16.091  11.190  45.023  0.00  0.00    +0.000 HD
ENDBRANCH   5   9
BRANCH   6  11
ATOM     11  O   UNL     1      16.357  13.418  46.306  0.00  0.00    +0.000 OA
ATOM     12  H   UNL     1      15.488  13.198  46.703  0.00  0.00    +0.000 HD
ENDBRANCH   6  11
BRANCH   1  13
ATOM     13  O   UNL     1      13.300  15.021  44.192  0.00  0.00    +0.000 OA
BRANCH  13  16
ATOM     14  O   UNL     1      10.805  13.593  44.646  0.00  0.00    +0.000 OA
ATOM     15  C   UNL     1      10.843  14.683  44.108  0.00  0.00    +0.000 A 
ATOM     16  C   UNL     1      12.045  15.583  43.906  0.00  0.00    +0.000 A 
ATOM     17  C   UNL     1       9.597  15.279  43.676  0.00  0.00    +0.000 A 
ATOM     18  C   UNL     1      11.934  16.651  43.467  0.00  0.00    +0.000 A 
ATOM     19  C   UNL     1       9.651  16.627  43.472  0.00  0.00    +0.000 A 
ATOM     20  C   UNL     1       8.333  14.591  43.654  0.00  0.00    +0.000 A 
ATOM     21  O   UNL     1      10.931  17.167  43.625  0.00  0.00    +0.000 OA
ATOM     22  C   UNL     1       8.415  17.364  43.688  0.00  0.00    +0.000 A 
ATOM     23  C   UNL     1       7.151  15.296  43.775  0.00  0.00    +0.000 A 
ATOM     24  C   UNL     1       7.192  16.683  43.837  0.00  0.00    +0.000 A 
BRANCH  18  25
ATOM     25  C   UNL     1      12.700  17.680  42.590  0.00  0.00    +0.000 A 
ATOM     26  C   UNL     1      13.767  18.469  43.108  0.00  0.00    +0.000 A 
ATOM     27  C   UNL     1      12.403  17.889  41.212  0.00  0.00    +0.000 A 
ATOM     28  C   UNL     1      14.500  19.359  42.294  0.00  0.00    +0.000 A 
ATOM     29  C   UNL     1      13.121  18.788  40.422  0.00  0.00    +0.000 A 
ATOM     30  C   UNL     1      14.182  19.516  40.947  0.00  0.00    +0.000 A 
BRANCH  28  31
ATOM     31  O   UNL     1      15.579  20.070  42.751  0.00  0.00    +0.000 OA
ATOM     32  H   UNL     1      16.388  19.916  42.243  0.00  0.00    +0.000 HD
ENDBRANCH  28  31
BRANCH  30  33
ATOM     33  O   UNL     1      14.890  20.383  40.141  0.00  0.00    +0.000 OA
ATOM     34  H   UNL     1      14.499  21.292  40.113  0.00  0.00    +0.000 HD
ENDBRANCH  30  33
ENDBRANCH  18  25
BRANCH  20  35
ATOM     35  O   UNL     1       8.334  13.233  43.519  0.00  0.00    +0.000 OA
ATOM     36  H   UNL     1       7.440  12.916  43.793  0.00  0.00    +0.000 HD
ENDBRANCH  20  35
BRANCH  24  37
ATOM     37  O   UNL     1       6.000  17.315  44.032  0.00  0.00    +0.000 OA
ATOM     38  H   UNL     1       5.268  16.847  43.618  0.00  0.00    +0.000 HD
ENDBRANCH  24  37
ENDBRANCH  13  16
ENDBRANCH   1  13
BRANCH   4  39
ATOM     39  C   UNL     1      17.538  15.604  44.101  0.00  0.00    +0.000 C 
BRANCH  39  40
ATOM     40  O   UNL     1      18.040  15.243  42.794  0.00  0.00    +0.000 OA
BRANCH  40  41
ATOM     41  C   UNL     1      19.162  16.019  42.333  0.00  0.00    +0.000 C 
ATOM     42  O   UNL     1      19.687  15.545  41.066  0.00  0.00    +0.000 OA
ATOM     43  C   UNL     1      18.755  17.500  42.238  0.00  0.00    +0.000 C 
ATOM     44  C   UNL     1      18.862  15.726  39.887  0.00  0.00    +0.000 C 
ATOM     45  C   UNL     1      17.875  17.776  40.997  0.00  0.00    +0.000 C 
ATOM     46  C   UNL     1      18.545  17.230  39.716  0.00  0.00    +0.000 C 
ATOM     47  C   UNL     1      19.664  15.180  38.689  0.00  0.00    +0.000 C 
BRANCH  45  48
ATOM     48  O   UNL     1      17.709  19.190  40.886  0.00  0.00    +0.000 OA
ATOM     49  H   UNL     1      16.877  19.317  40.385  0.00  0.00    +0.000 HD
ENDBRANCH  45  48
BRANCH  46  50
ATOM     50  O   UNL     1      17.698  17.423  38.573  0.00  0.00    +0.000 OA
ATOM     51  H   UNL     1      16.779  17.562  38.864  0.00  0.00    +0.000 HD
ENDBRANCH  46  50
BRANCH  43  52
ATOM     52  O   UNL     1      19.969  18.238  42.149  0.00  0.00    +0.000 OA
ATOM     53  H   UNL     1      20.524  17.877  42.863  0.00  0.00    +0.000 HD
ENDBRANCH  43  52
ENDBRANCH  40  41
ENDBRANCH  39  40
ENDBRANCH   4  39
TORSDOF 16
ENDMDL
MODEL 19
REMARK VINA RESULT:    -5.445      2.962      7.891
REMARK INTER + INTRA:         -12.303
REMARK INTER:                  -9.625
REMARK INTRA:                  -2.678
REMARK UNBOUND:                -3.356
REMARK  Name = opt41.pdb
REMARK  17 active torsions:
REMARK  status: ('A' for Active; 'I' for Inactive)
REMARK    1  A    between atoms: C_3  and  O_5
REMARK    2  A    between atoms: O_5  and  C_9
REMARK    3  A    between atoms: C_6  and  C_11
REMARK    4  A    between atoms: C_8  and  O_13
REMARK    5  A    between atoms: C_16  and  O_21
REMARK    6  A    between atoms: C_19  and  O_25
REMARK    7  A    between atoms: C_20  and  C_27
REMARK    8  A    between atoms: C_22  and  O_28
REMARK    9  A    between atoms: C_23  and  O_29
REMARK   10  A    between atoms: C_26  and  O_31
REMARK   11  A    between atoms: C_27  and  O_32
REMARK   12  A    between atoms: C_30  and  O_33
REMARK   13  A    between atoms: O_32  and  C_34
REMARK   14  A    between atoms: C_36  and  O_38
REMARK   15  A    between atoms: C_37  and  C_41
REMARK   16  A    between atoms: C_39  and  O_42
REMARK   17  A    between atoms: C_40  and  O_43
REMARK                            x       y       z     vdW  Elec       q    Type
REMARK                         _______ _______ _______ _____ _____    ______ ____
ROOT
ATOM      1  C   UNL     1      12.375  14.509  43.938  0.00  0.00    +0.000 C 
ATOM      2  O   UNL     1      11.142  13.771  44.090  0.00  0.00    +0.000 OA
ATOM      3  C   UNL     1      13.488  13.494  44.166  0.00  0.00    +0.000 C 
ATOM      4  C   UNL     1      10.820  12.840  43.037  0.00  0.00    +0.000 C 
ATOM      5  C   UNL     1      13.411  12.462  43.047  0.00  0.00    +0.000 C 
ATOM      6  C   UNL     1      12.000  11.836  42.834  0.00  0.00    +0.000 C 
ENDROOT
BRANCH   3   7
ATOM      7  O   UNL     1      13.338  12.880  45.471  0.00  0.00    +0.000 OA
ATOM      8  H   UNL     1      12.732  12.104  45.451  0.00  0.00    +0.000 HD
ENDBRANCH   3   7
BRANCH   5   9
ATOM      9  O   UNL     1      14.346  11.449  43.361  0.00  0.00    +0.000 OA
ATOM     10  H   UNL     1      14.550  11.610  44.276  0.00  0.00    +0.000 HD
ENDBRANCH   5   9
BRANCH   6  11
ATOM     11  O   UNL     1      11.983  11.347  41.485  0.00  0.00    +0.000 OA
ATOM     12  H   UNL     1      11.464  10.517  41.442  0.00  0.00    +0.000 HD
ENDBRANCH   6  11
BRANCH   1  13
ATOM     13  O   UNL     1      12.410  15.204  42.635  0.00  0.00    +0.000 OA
BRANCH  13  16
ATOM     14  O   UNL     1      10.154  15.152  40.797  0.00  0.00    +0.000 OA
ATOM     15  C   UNL     1      10.525  16.173  41.344  0.00  0.00    +0.000 A 
ATOM     16  C   UNL     1      11.604  16.330  42.397  0.00  0.00    +0.000 A 
ATOM     17  C   UNL     1       9.816  17.401  41.058  0.00  0.00    +0.000 A 
ATOM     18  C   UNL     1      11.797  17.347  42.919  0.00  0.00    +0.000 A 
ATOM     19  C   UNL     1       9.997  18.391  41.980  0.00  0.00    +0.000 A 
ATOM     20  C   UNL     1       8.829  17.546  40.021  0.00  0.00    +0.000 A 
ATOM     21  O   UNL     1      10.915  18.064  42.982  0.00  0.00    +0.000 OA
ATOM     22  C   UNL     1       8.898  19.331  42.145  0.00  0.00    +0.000 A 
ATOM     23  C   UNL     1       7.831  18.494  40.134  0.00  0.00    +0.000 A 
ATOM     24  C   UNL     1       7.837  19.360  41.219  0.00  0.00    +0.000 A 
BRANCH  18  25
ATOM     25  C   UNL     1      12.949  18.187  43.536  0.00  0.00    +0.000 A 
ATOM     26  C   UNL     1      13.424  17.962  44.860  0.00  0.00    +0.000 A 
ATOM     27  C   UNL     1      13.620  19.219  42.817  0.00  0.00    +0.000 A 
ATOM     28  C   UNL     1      14.511  18.685  45.396  0.00  0.00    +0.000 A 
ATOM     29  C   UNL     1      14.680  19.942  43.365  0.00  0.00    +0.000 A 
ATOM     30  C   UNL     1      15.145  19.673  44.648  0.00  0.00    +0.000 A 
BRANCH  28  31
ATOM     31  O   UNL     1      15.034  18.433  46.638  0.00  0.00    +0.000 OA
ATOM     32  H   UNL     1      15.195  17.494  46.807  0.00  0.00    +0.000 HD
ENDBRANCH  28  31
BRANCH  30  33
ATOM     33  O   UNL     1      16.209  20.388  45.160  0.00  0.00    +0.000 OA
ATOM     34  H   UNL     1      16.717  20.876  44.464  0.00  0.00    +0.000 HD
ENDBRANCH  30  33
ENDBRANCH  18  25
BRANCH  20  35
ATOM     35  O   UNL     1       8.901  16.723  38.935  0.00  0.00    +0.000 OA
ATOM     36  H   UNL     1       9.357  15.897  39.230  0.00  0.00    +0.000 HD
ENDBRANCH  20  35
BRANCH  24  37
ATOM     37  O   UNL     1       6.783  20.221  41.312  0.00  0.00    +0.000 OA
ATOM     38  H   UNL     1       6.968  21.068  40.895  0.00  0.00    +0.000 HD
ENDBRANCH  24  37
ENDBRANCH  13  16
ENDBRANCH   1  13
BRANCH   4  39
ATOM     39  C   UNL     1       9.484  12.204  43.499  0.00  0.00    +0.000 C 
BRANCH  39  40
ATOM     40  O   UNL     1       8.685  13.126  44.275  0.00  0.00    +0.000 OA
BRANCH  40  41
ATOM     41  C   UNL     1       7.267  13.055  44.039  0.00  0.00    +0.000 C 
ATOM     42  O   UNL     1       6.672  14.360  43.816  0.00  0.00    +0.000 OA
ATOM     43  C   UNL     1       6.992  12.118  42.850  0.00  0.00    +0.000 C 
ATOM     44  C   UNL     1       7.013  15.053  42.588  0.00  0.00    +0.000 C 
ATOM     45  C   UNL     1       7.327  12.790  41.498  0.00  0.00    +0.000 C 
ATOM     46  C   UNL     1       6.630  14.165  41.381  0.00  0.00    +0.000 C 
ATOM     47  C   UNL     1       6.223  16.377  42.584  0.00  0.00    +0.000 C 
BRANCH  45  48
ATOM     48  O   UNL     1       6.863  11.928  40.457  0.00  0.00    +0.000 OA
ATOM     49  H   UNL     1       7.621  11.345  40.244  0.00  0.00    +0.000 HD
ENDBRANCH  45  48
BRANCH  46  50
ATOM     50  O   UNL     1       6.995  14.820  40.158  0.00  0.00    +0.000 OA
ATOM     51  H   UNL     1       7.854  15.265  40.266  0.00  0.00    +0.000 HD
ENDBRANCH  46  50
BRANCH  43  52
ATOM     52  O   UNL     1       5.605  11.802  42.908  0.00  0.00    +0.000 OA
ATOM     53  H   UNL     1       5.285  11.955  42.001  0.00  0.00    +0.000 HD
ENDBRANCH  43  52
ENDBRANCH  40  41
ENDBRANCH  39  40
ENDBRANCH   4  39
TORSDOF 16
ENDMDL
