MODEL 1
REMARK VINA RESULT:    -5.119      0.000      0.000
REMARK INTER + INTRA:          -5.119
REMARK INTER:                  -5.119
REMARK INTRA:                   0.000
REMARK UNBOUND:                 0.000
REMARK  Name = opt03.pdb
REMARK  0 active torsions:
REMARK  status: ('A' for Active; 'I' for Inactive)
REMARK                            x       y       z     vdW  Elec       q    Type
REMARK                         _______ _______ _______ _____ _____    ______ ____
ROOT
ATOM      1  O   UNL     1      13.501  10.743  44.419  0.00  0.00    +0.000 OA
ATOM      2  C   UNL     1      13.739  11.931  44.466  0.00  0.00    +0.000 A 
ATOM      3  O   UNL     1      12.743  12.847  44.573  0.00  0.00    +0.000 OA
ATOM      4  C   UNL     1      15.099  12.495  44.419  0.00  0.00    +0.000 A 
ATOM      5  C   UNL     1      12.932  14.213  44.616  0.00  0.00    +0.000 A 
ATOM      6  C   UNL     1      15.348  13.905  44.501  0.00  0.00    +0.000 A 
ATOM      7  C   UNL     1      14.262  14.762  44.616  0.00  0.00    +0.000 A 
ATOM      8  C   UNL     1      11.792  15.078  44.740  0.00  0.00    +0.000 A 
ATOM      9  C   UNL     1      14.421  16.142  44.729  0.00  0.00    +0.000 A 
ATOM     10  C   UNL     1      12.007  16.451  44.851  0.00  0.00    +0.000 A 
ATOM     11  C   UNL     1      13.303  16.974  44.846  0.00  0.00    +0.000 A 
ENDROOT
TORSDOF 0
ENDMDL
MODEL 2
REMARK VINA RESULT:    -4.779      0.832      1.055
REMARK INTER + INTRA:          -4.779
REMARK INTER:                  -4.779
REMARK INTRA:                   0.000
REMARK UNBOUND:                 0.000
REMARK  Name = opt03.pdb
REMARK  0 active torsions:
REMARK  status: ('A' for Active; 'I' for Inactive)
REMARK                            x       y       z     vdW  Elec       q    Type
REMARK                         _______ _______ _______ _____ _____    ______ ____
ROOT
ATOM      1  O   UNL     1      13.689  11.014  44.542  0.00  0.00    +0.000 OA
ATOM      2  C   UNL     1      13.592  12.223  44.556  0.00  0.00    +0.000 A 
ATOM      3  O   UNL     1      12.412  12.840  44.294  0.00  0.00    +0.000 OA
ATOM      4  C   UNL     1      14.714  13.130  44.857  0.00  0.00    +0.000 A 
ATOM      5  C   UNL     1      12.226  14.207  44.274  0.00  0.00    +0.000 A 
ATOM      6  C   UNL     1      14.560  14.556  44.888  0.00  0.00    +0.000 A 
ATOM      7  C   UNL     1      13.309  15.092  44.612  0.00  0.00    +0.000 A 
ATOM      8  C   UNL     1      10.922  14.737  43.991  0.00  0.00    +0.000 A 
ATOM      9  C   UNL     1      13.071  16.465  44.650  0.00  0.00    +0.000 A 
ATOM     10  C   UNL     1      10.737  16.117  44.042  0.00  0.00    +0.000 A 
ATOM     11  C   UNL     1      11.797  16.968  44.368  0.00  0.00    +0.000 A 
ENDROOT
TORSDOF 0
ENDMDL
MODEL 3
REMARK VINA RESULT:    -4.772      1.823      3.456
REMARK INTER + INTRA:          -4.772
REMARK INTER:                  -4.772
REMARK INTRA:                   0.000
REMARK UNBOUND:                 0.000
REMARK  Name = opt03.pdb
REMARK  0 active torsions:
REMARK  status: ('A' for Active; 'I' for Inactive)
REMARK                            x       y       z     vdW  Elec       q    Type
REMARK                         _______ _______ _______ _____ _____    ______ ____
ROOT
ATOM      1  O   UNL     1       9.902  11.424  42.694  0.00  0.00    +0.000 OA
ATOM      2  C   UNL     1      10.728  12.146  43.212  0.00  0.00    +0.000 A 
ATOM      3  O   UNL     1      12.016  11.748  43.366  0.00  0.00    +0.000 OA
ATOM      4  C   UNL     1      10.432  13.500  43.711  0.00  0.00    +0.000 A 
ATOM      5  C   UNL     1      13.008  12.503  43.957  0.00  0.00    +0.000 A 
ATOM      6  C   UNL     1      11.438  14.338  44.297  0.00  0.00    +0.000 A 
ATOM      7  C   UNL     1      12.731  13.843  44.404  0.00  0.00    +0.000 A 
ATOM      8  C   UNL     1      14.338  11.970  44.052  0.00  0.00    +0.000 A 
ATOM      9  C   UNL     1      13.770  14.605  44.935  0.00  0.00    +0.000 A 
ATOM     10  C   UNL     1      15.341  12.774  44.591  0.00  0.00    +0.000 A 
ATOM     11  C   UNL     1      15.060  14.072  45.025  0.00  0.00    +0.000 A 
ENDROOT
TORSDOF 0
ENDMDL
MODEL 4
REMARK VINA RESULT:    -4.738      1.211      3.229
REMARK INTER + INTRA:          -4.738
REMARK INTER:                  -4.738
REMARK INTRA:                   0.000
REMARK UNBOUND:                 0.000
REMARK  Name = opt03.pdb
REMARK  0 active torsions:
REMARK  status: ('A' for Active; 'I' for Inactive)
REMARK                            x       y       z     vdW  Elec       q    Type
REMARK                         _______ _______ _______ _____ _____    ______ ____
ROOT
ATOM      1  O   UNL     1      10.110  13.354  44.525  0.00  0.00    +0.000 OA
ATOM      2  C   UNL     1      11.175  13.934  44.565  0.00  0.00    +0.000 A 
ATOM      3  O   UNL     1      12.341  13.259  44.723  0.00  0.00    +0.000 OA
ATOM      4  C   UNL     1      11.314  15.395  44.444  0.00  0.00    +0.000 A 
ATOM      5  C   UNL     1      13.587  13.847  44.794  0.00  0.00    +0.000 A 
ATOM      6  C   UNL     1      12.591  16.049  44.471  0.00  0.00    +0.000 A 
ATOM      7  C   UNL     1      13.728  15.270  44.630  0.00  0.00    +0.000 A 
ATOM      8  C   UNL     1      14.749  13.019  44.954  0.00  0.00    +0.000 A 
ATOM      9  C   UNL     1      15.007  15.825  44.638  0.00  0.00    +0.000 A 
ATOM     10  C   UNL     1      16.004  13.624  44.956  0.00  0.00    +0.000 A 
ATOM     11  C   UNL     1      16.130  15.008  44.799  0.00  0.00    +0.000 A 
ENDROOT
TORSDOF 0
ENDMDL
MODEL 5
REMARK VINA RESULT:    -4.658      1.495      2.968
REMARK INTER + INTRA:          -4.658
REMARK INTER:                  -4.658
REMARK INTRA:                   0.000
REMARK UNBOUND:                 0.000
REMARK  Name = opt03.pdb
REMARK  0 active torsions:
REMARK  status: ('A' for Active; 'I' for Inactive)
REMARK                            x       y       z     vdW  Elec       q    Type
REMARK                         _______ _______ _______ _____ _____    ______ ____
ROOT
ATOM      1  O   UNL     1      13.431  11.171  44.463  0.00  0.00    +0.000 OA
ATOM      2  C   UNL     1      13.806  12.320  44.576  0.00  0.00    +0.000 A 
ATOM      3  O   UNL     1      15.113  12.619  44.784  0.00  0.00    +0.000 OA
ATOM      4  C   UNL     1      12.906  13.483  44.499  0.00  0.00    +0.000 A 
ATOM      5  C   UNL     1      15.613  13.896  44.939  0.00  0.00    +0.000 A 
ATOM      6  C   UNL     1      13.384  14.831  44.614  0.00  0.00    +0.000 A 
ATOM      7  C   UNL     1      14.742  15.035  44.818  0.00  0.00    +0.000 A 
ATOM      8  C   UNL     1      17.022  14.081  45.144  0.00  0.00    +0.000 A 
ATOM      9  C   UNL     1      15.289  16.314  44.912  0.00  0.00    +0.000 A 
ATOM     10  C   UNL     1      17.517  15.380  45.231  0.00  0.00    +0.000 A 
ATOM     11  C   UNL     1      16.663  16.481  45.116  0.00  0.00    +0.000 A 
ENDROOT
TORSDOF 0
ENDMDL
MODEL 6
REMARK VINA RESULT:    -4.611      2.989      4.148
REMARK INTER + INTRA:          -4.611
REMARK INTER:                  -4.611
REMARK INTRA:                   0.000
REMARK UNBOUND:                 0.000
REMARK  Name = opt03.pdb
REMARK  0 active torsions:
REMARK  status: ('A' for Active; 'I' for Inactive)
REMARK                            x       y       z     vdW  Elec       q    Type
REMARK                         _______ _______ _______ _____ _____    ______ ____
ROOT
ATOM      1  O   UNL     1      18.905  14.581  42.459  0.00  0.00    +0.000 OA
ATOM      2  C   UNL     1      17.908  14.336  43.105  0.00  0.00    +0.000 A 
ATOM      3  O   UNL     1      16.854  13.681  42.557  0.00  0.00    +0.000 OA
ATOM      4  C   UNL     1      17.740  14.711  44.520  0.00  0.00    +0.000 A 
ATOM      5  C   UNL     1      15.682  13.381  43.221  0.00  0.00    +0.000 A 
ATOM      6  C   UNL     1      16.556  14.386  45.264  0.00  0.00    +0.000 A 
ATOM      7  C   UNL     1      15.534  13.706  44.615  0.00  0.00    +0.000 A 
ATOM      8  C   UNL     1      14.641  12.673  42.529  0.00  0.00    +0.000 A 
ATOM      9  C   UNL     1      14.365  13.329  45.275  0.00  0.00    +0.000 A 
ATOM     10  C   UNL     1      13.493  12.320  43.235  0.00  0.00    +0.000 A 
ATOM     11  C   UNL     1      13.358  12.643  44.588  0.00  0.00    +0.000 A 
ENDROOT
TORSDOF 0
ENDMDL
MODEL 7
REMARK VINA RESULT:    -4.600      2.374      3.555
REMARK INTER + INTRA:          -4.600
REMARK INTER:                  -4.600
REMARK INTRA:                   0.000
REMARK UNBOUND:                 0.000
REMARK  Name = opt03.pdb
REMARK  0 active torsions:
REMARK  status: ('A' for Active; 'I' for Inactive)
REMARK                            x       y       z     vdW  Elec       q    Type
REMARK                         _______ _______ _______ _____ _____    ______ ____
ROOT
ATOM      1  O   UNL     1      12.374  12.482  42.322  0.00  0.00    +0.000 OA
ATOM      2  C   UNL     1      13.253  12.838  43.080  0.00  0.00    +0.000 A 
ATOM      3  O   UNL     1      14.481  13.188  42.622  0.00  0.00    +0.000 OA
ATOM      4  C   UNL     1      13.083  12.931  44.540  0.00  0.00    +0.000 A 
ATOM      5  C   UNL     1      15.534  13.587  43.420  0.00  0.00    +0.000 A 
ATOM      6  C   UNL     1      14.136  13.378  45.407  0.00  0.00    +0.000 A 
ATOM      7  C   UNL     1      15.356  13.722  44.842  0.00  0.00    +0.000 A 
ATOM      8  C   UNL     1      16.785  13.941  42.811  0.00  0.00    +0.000 A 
ATOM      9  C   UNL     1      16.419  14.192  45.612  0.00  0.00    +0.000 A 
ATOM     10  C   UNL     1      17.815  14.406  43.626  0.00  0.00    +0.000 A 
ATOM     11  C   UNL     1      17.633  14.530  45.007  0.00  0.00    +0.000 A 
ENDROOT
TORSDOF 0
ENDMDL
MODEL 8
REMARK VINA RESULT:    -4.303      1.622      2.742
REMARK INTER + INTRA:          -4.303
REMARK INTER:                  -4.303
REMARK INTRA:                   0.000
REMARK UNBOUND:                 0.000
REMARK  Name = opt03.pdb
REMARK  0 active torsions:
REMARK  status: ('A' for Active; 'I' for Inactive)
REMARK                            x       y       z     vdW  Elec       q    Type
REMARK                         _______ _______ _______ _____ _____    ______ ____
ROOT
ATOM      1  O   UNL     1      11.297  13.419  44.446  0.00  0.00    +0.000 OA
ATOM      2  C   UNL     1      12.496  13.583  44.536  0.00  0.00    +0.000 A 
ATOM      3  O   UNL     1      13.032  14.824  44.649  0.00  0.00    +0.000 OA
ATOM      4  C   UNL     1      13.473  12.480  44.537  0.00  0.00    +0.000 A 
ATOM      5  C   UNL     1      14.383  15.092  44.739  0.00  0.00    +0.000 A 
ATOM      6  C   UNL     1      14.883  12.707  44.668  0.00  0.00    +0.000 A 
ATOM      7  C   UNL     1      15.335  14.014  44.786  0.00  0.00    +0.000 A 
ATOM      8  C   UNL     1      14.824  16.453  44.864  0.00  0.00    +0.000 A 
ATOM      9  C   UNL     1      16.686  14.316  44.946  0.00  0.00    +0.000 A 
ATOM     10  C   UNL     1      16.186  16.699  45.022  0.00  0.00    +0.000 A 
ATOM     11  C   UNL     1      17.104  15.645  45.063  0.00  0.00    +0.000 A 
ENDROOT
TORSDOF 0
ENDMDL
MODEL 9
REMARK VINA RESULT:    -4.279      4.972      6.287
REMARK INTER + INTRA:          -4.279
REMARK INTER:                  -4.279
REMARK INTRA:                   0.000
REMARK UNBOUND:                 0.000
REMARK  Name = opt03.pdb
REMARK  0 active torsions:
REMARK  status: ('A' for Active; 'I' for Inactive)
REMARK                            x       y       z     vdW  Elec       q    Type
REMARK                         _______ _______ _______ _____ _____    ______ ____
ROOT
ATOM      1  O   UNL     1      11.334  12.493  41.293  0.00  0.00    +0.000 OA
ATOM      2  C   UNL     1      10.381  12.703  42.013  0.00  0.00    +0.000 A 
ATOM      3  O   UNL     1       9.122  12.370  41.633  0.00  0.00    +0.000 OA
ATOM      4  C   UNL     1      10.486  13.322  43.346  0.00  0.00    +0.000 A 
ATOM      5  C   UNL     1       7.988  12.592  42.388  0.00  0.00    +0.000 A 
ATOM      6  C   UNL     1       9.341  13.536  44.184  0.00  0.00    +0.000 A 
ATOM      7  C   UNL     1       8.093  13.154  43.708  0.00  0.00    +0.000 A 
ATOM      8  C   UNL     1       6.710  12.184  41.876  0.00  0.00    +0.000 A 
ATOM      9  C   UNL     1       6.937  13.302  44.472  0.00  0.00    +0.000 A 
ATOM     10  C   UNL     1       5.585  12.354  42.680  0.00  0.00    +0.000 A 
ATOM     11  C   UNL     1       5.698  12.905  43.960  0.00  0.00    +0.000 A 
ENDROOT
TORSDOF 0
ENDMDL
MODEL 10
REMARK VINA RESULT:    -4.197      2.025      3.684
REMARK INTER + INTRA:          -4.197
REMARK INTER:                  -4.197
REMARK INTRA:                   0.000
REMARK UNBOUND:                 0.000
REMARK  Name = opt03.pdb
REMARK  0 active torsions:
REMARK  status: ('A' for Active; 'I' for Inactive)
REMARK                            x       y       z     vdW  Elec       q    Type
REMARK                         _______ _______ _______ _____ _____    ______ ____
ROOT
ATOM      1  O   UNL     1       9.222  13.717  44.491  0.00  0.00    +0.000 OA
ATOM      2  C   UNL     1      10.341  13.411  44.138  0.00  0.00    +0.000 A 
ATOM      3  O   UNL     1      11.438  14.017  44.661  0.00  0.00    +0.000 OA
ATOM      4  C   UNL     1      10.625  12.373  43.132  0.00  0.00    +0.000 A 
ATOM      5  C   UNL     1      12.739  13.736  44.299  0.00  0.00    +0.000 A 
ATOM      6  C   UNL     1      11.962  12.018  42.753  0.00  0.00    +0.000 A 
ATOM      7  C   UNL     1      13.019  12.691  43.350  0.00  0.00    +0.000 A 
ATOM      8  C   UNL     1      13.815  14.442  44.936  0.00  0.00    +0.000 A 
ATOM      9  C   UNL     1      14.348  12.386  43.057  0.00  0.00    +0.000 A 
ATOM     10  C   UNL     1      15.125  14.098  44.607  0.00  0.00    +0.000 A 
ATOM     11  C   UNL     1      15.386  13.084  43.682  0.00  0.00    +0.000 A 
ENDROOT
TORSDOF 0
ENDMDL
MODEL 11
REMARK VINA RESULT:    -4.170      1.652      2.762
REMARK INTER + INTRA:          -4.170
REMARK INTER:                  -4.170
REMARK INTRA:                   0.000
REMARK UNBOUND:                 0.000
REMARK  Name = opt03.pdb
REMARK  0 active torsions:
REMARK  status: ('A' for Active; 'I' for Inactive)
REMARK                            x       y       z     vdW  Elec       q    Type
REMARK                         _______ _______ _______ _____ _____    ______ ____
ROOT
ATOM      1  O   UNL     1      11.883  11.522  43.499  0.00  0.00    +0.000 OA
ATOM      2  C   UNL     1      12.571  12.515  43.612  0.00  0.00    +0.000 A 
ATOM      3  O   UNL     1      13.675  12.523  44.400  0.00  0.00    +0.000 OA
ATOM      4  C   UNL     1      12.293  13.784  42.919  0.00  0.00    +0.000 A 
ATOM      5  C   UNL     1      14.498  13.614  44.593  0.00  0.00    +0.000 A 
ATOM      6  C   UNL     1      13.141  14.934  43.055  0.00  0.00    +0.000 A 
ATOM      7  C   UNL     1      14.253  14.840  43.881  0.00  0.00    +0.000 A 
ATOM      8  C   UNL     1      15.645  13.490  45.448  0.00  0.00    +0.000 A 
ATOM      9  C   UNL     1      15.141  15.903  44.045  0.00  0.00    +0.000 A 
ATOM     10  C   UNL     1      16.500  14.582  45.576  0.00  0.00    +0.000 A 
ATOM     11  C   UNL     1      16.252  15.771  44.883  0.00  0.00    +0.000 A 
ENDROOT
TORSDOF 0
ENDMDL
MODEL 12
REMARK VINA RESULT:    -4.143      2.220      3.049
REMARK INTER + INTRA:          -4.143
REMARK INTER:                  -4.143
REMARK INTRA:                   0.000
REMARK UNBOUND:                 0.000
REMARK  Name = opt03.pdb
REMARK  0 active torsions:
REMARK  status: ('A' for Active; 'I' for Inactive)
REMARK                            x       y       z     vdW  Elec       q    Type
REMARK                         _______ _______ _______ _____ _____    ______ ____
ROOT
ATOM      1  O   UNL     1      17.672  15.376  44.544  0.00  0.00    +0.000 OA
ATOM      2  C   UNL     1      16.530  14.977  44.631  0.00  0.00    +0.000 A 
ATOM      3  O   UNL     1      15.475  15.818  44.485  0.00  0.00    +0.000 OA
ATOM      4  C   UNL     1      16.173  13.572  44.893  0.00  0.00    +0.000 A 
ATOM      5  C   UNL     1      14.150  15.444  44.586  0.00  0.00    +0.000 A 
ATOM      6  C   UNL     1      14.811  13.128  44.966  0.00  0.00    +0.000 A 
ATOM      7  C   UNL     1      13.800  14.065  44.796  0.00  0.00    +0.000 A 
ATOM      8  C   UNL     1      13.124  16.431  44.401  0.00  0.00    +0.000 A 
ATOM      9  C   UNL     1      12.453  13.708  44.825  0.00  0.00    +0.000 A 
ATOM     10  C   UNL     1      11.792  16.022  44.439  0.00  0.00    +0.000 A 
ATOM     11  C   UNL     1      11.463  14.680  44.648  0.00  0.00    +0.000 A 
ENDROOT
TORSDOF 0
ENDMDL
MODEL 13
REMARK VINA RESULT:    -4.079      2.171      3.149
REMARK INTER + INTRA:          -4.079
REMARK INTER:                  -4.079
REMARK INTRA:                   0.000
REMARK UNBOUND:                 0.000
REMARK  Name = opt03.pdb
REMARK  0 active torsions:
REMARK  status: ('A' for Active; 'I' for Inactive)
REMARK                            x       y       z     vdW  Elec       q    Type
REMARK                         _______ _______ _______ _____ _____    ______ ____
ROOT
ATOM      1  O   UNL     1      16.476  13.471  42.577  0.00  0.00    +0.000 OA
ATOM      2  C   UNL     1      15.389  13.710  43.060  0.00  0.00    +0.000 A 
ATOM      3  O   UNL     1      14.278  13.036  42.668  0.00  0.00    +0.000 OA
ATOM      4  C   UNL     1      15.163  14.727  44.101  0.00  0.00    +0.000 A 
ATOM      5  C   UNL     1      13.008  13.260  43.157  0.00  0.00    +0.000 A 
ATOM      6  C   UNL     1      13.868  14.969  44.669  0.00  0.00    +0.000 A 
ATOM      7  C   UNL     1      12.794  14.222  44.206  0.00  0.00    +0.000 A 
ATOM      8  C   UNL     1      11.914  12.471  42.665  0.00  0.00    +0.000 A 
ATOM      9  C   UNL     1      11.510  14.377  44.726  0.00  0.00    +0.000 A 
ATOM     10  C   UNL     1      10.650  12.665  43.219  0.00  0.00    +0.000 A 
ATOM     11  C   UNL     1      10.452  13.605  44.236  0.00  0.00    +0.000 A 
ENDROOT
TORSDOF 0
ENDMDL
MODEL 14
REMARK VINA RESULT:    -4.068      2.303      4.557
REMARK INTER + INTRA:          -4.068
REMARK INTER:                  -4.068
REMARK INTRA:                   0.000
REMARK UNBOUND:                 0.000
REMARK  Name = opt03.pdb
REMARK  0 active torsions:
REMARK  status: ('A' for Active; 'I' for Inactive)
REMARK                            x       y       z     vdW  Elec       q    Type
REMARK                         _______ _______ _______ _____ _____    ______ ____
ROOT
ATOM      1  O   UNL     1      14.340  18.693  44.609  0.00  0.00    +0.000 OA
ATOM      2  C   UNL     1      13.963  17.540  44.617  0.00  0.00    +0.000 A 
ATOM      3  O   UNL     1      14.844  16.508  44.601  0.00  0.00    +0.000 OA
ATOM      4  C   UNL     1      12.544  17.145  44.650  0.00  0.00    +0.000 A 
ATOM      5  C   UNL     1      14.494  15.174  44.593  0.00  0.00    +0.000 A 
ATOM      6  C   UNL     1      12.131  15.771  44.683  0.00  0.00    +0.000 A 
ATOM      7  C   UNL     1      13.110  14.787  44.671  0.00  0.00    +0.000 A 
ATOM      8  C   UNL     1      15.525  14.174  44.585  0.00  0.00    +0.000 A 
ATOM      9  C   UNL     1      12.792  13.431  44.730  0.00  0.00    +0.000 A 
ATOM     10  C   UNL     1      15.153  12.833  44.645  0.00  0.00    +0.000 A 
ATOM     11  C   UNL     1      13.806  12.467  44.717  0.00  0.00    +0.000 A 
ENDROOT
TORSDOF 0
ENDMDL
MODEL 15
REMARK VINA RESULT:    -3.906      2.186      3.107
REMARK INTER + INTRA:          -3.906
REMARK INTER:                  -3.906
REMARK INTRA:                   0.000
REMARK UNBOUND:                 0.000
REMARK  Name = opt03.pdb
REMARK  0 active torsions:
REMARK  status: ('A' for Active; 'I' for Inactive)
REMARK                            x       y       z     vdW  Elec       q    Type
REMARK                         _______ _______ _______ _____ _____    ______ ____
ROOT
ATOM      1  O   UNL     1      11.386  13.839  42.042  0.00  0.00    +0.000 OA
ATOM      2  C   UNL     1      12.338  13.725  42.785  0.00  0.00    +0.000 A 
ATOM      3  O   UNL     1      13.205  14.750  42.984  0.00  0.00    +0.000 OA
ATOM      4  C   UNL     1      12.645  12.496  43.537  0.00  0.00    +0.000 A 
ATOM      5  C   UNL     1      14.317  14.693  43.799  0.00  0.00    +0.000 A 
ATOM      6  C   UNL     1      13.767  12.402  44.427  0.00  0.00    +0.000 A 
ATOM      7  C   UNL     1      14.593  13.508  44.568  0.00  0.00    +0.000 A 
ATOM      8  C   UNL     1      15.154  15.853  43.932  0.00  0.00    +0.000 A 
ATOM      9  C   UNL     1      15.686  13.506  45.433  0.00  0.00    +0.000 A 
ATOM     10  C   UNL     1      16.233  15.798  44.811  0.00  0.00    +0.000 A 
ATOM     11  C   UNL     1      16.494  14.641  45.551  0.00  0.00    +0.000 A 
ENDROOT
TORSDOF 0
ENDMDL
MODEL 16
REMARK VINA RESULT:    -3.817      2.144      3.237
REMARK INTER + INTRA:          -3.817
REMARK INTER:                  -3.817
REMARK INTRA:                   0.000
REMARK UNBOUND:                 0.000
REMARK  Name = opt03.pdb
REMARK  0 active torsions:
REMARK  status: ('A' for Active; 'I' for Inactive)
REMARK                            x       y       z     vdW  Elec       q    Type
REMARK                         _______ _______ _______ _____ _____    ______ ____
ROOT
ATOM      1  O   UNL     1      17.886  14.620  44.794  0.00  0.00    +0.000 OA
ATOM      2  C   UNL     1      16.720  14.952  44.768  0.00  0.00    +0.000 A 
ATOM      3  O   UNL     1      15.724  14.032  44.717  0.00  0.00    +0.000 OA
ATOM      4  C   UNL     1      16.269  16.354  44.795  0.00  0.00    +0.000 A 
ATOM      5  C   UNL     1      14.378  14.330  44.669  0.00  0.00    +0.000 A 
ATOM      6  C   UNL     1      14.880  16.714  44.788  0.00  0.00    +0.000 A 
ATOM      7  C   UNL     1      13.935  15.698  44.740  0.00  0.00    +0.000 A 
ATOM      8  C   UNL     1      13.420  13.262  44.625  0.00  0.00    +0.000 A 
ATOM      9  C   UNL     1      12.567  15.963  44.759  0.00  0.00    +0.000 A 
ATOM     10  C   UNL     1      12.064  13.581  44.646  0.00  0.00    +0.000 A 
ATOM     11  C   UNL     1      11.644  14.913  44.712  0.00  0.00    +0.000 A 
ENDROOT
TORSDOF 0
ENDMDL
