MODEL 1
REMARK VINA RESULT:    -5.722      0.000      0.000
REMARK INTER + INTRA:          -8.148
REMARK INTER:                  -7.562
REMARK INTRA:                  -0.586
REMARK UNBOUND:                -0.586
REMARK  Name = opt64.pdb
REMARK  8 active torsions:
REMARK  status: ('A' for Active; 'I' for Inactive)
REMARK    1  A    between atoms: C_2  and  O_4
REMARK    2  A    between atoms: C_3  and  C_7
REMARK    3  A    between atoms: O_4  and  C_8
REMARK    4  A    between atoms: C_5  and  O_9
REMARK    5  A    between atoms: C_6  and  O_11
REMARK    6  A    between atoms: C_7  and  O_12
REMARK    7  A    between atoms: C_10  and  O_15
REMARK    8  A    between atoms: C_18  and  O_19
REMARK                            x       y       z     vdW  Elec       q    Type
REMARK                         _______ _______ _______ _____ _____    ______ ____
ROOT
ATOM      1  O   UNL     1      10.418  13.233  44.660  0.00  0.00    +0.000 OA
ATOM      2  C   UNL     1      11.716  13.548  44.111  0.00  0.00    +0.000 C 
ATOM      3  C   UNL     1       9.334  13.481  43.739  0.00  0.00    +0.000 C 
ATOM      4  C   UNL     1      11.995  12.562  42.950  0.00  0.00    +0.000 C 
ATOM      5  C   UNL     1       9.459  12.437  42.612  0.00  0.00    +0.000 C 
ATOM      6  C   UNL     1      10.835  12.625  41.922  0.00  0.00    +0.000 C 
ENDROOT
BRANCH   4   7
ATOM      7  O   UNL     1      12.132  11.222  43.447  0.00  0.00    +0.000 OA
ATOM      8  H   UNL     1      12.987  10.870  43.136  0.00  0.00    +0.000 HD
ENDBRANCH   4   7
BRANCH   5   9
ATOM      9  O   UNL     1       8.400  12.609  41.668  0.00  0.00    +0.000 OA
ATOM     10  H   UNL     1       8.213  11.747  41.260  0.00  0.00    +0.000 HD
ENDBRANCH   5   9
BRANCH   6  11
ATOM     11  O   UNL     1      11.030  11.601  40.951  0.00  0.00    +0.000 OA
ATOM     12  H   UNL     1      10.317  10.957  41.125  0.00  0.00    +0.000 HD
ENDBRANCH   6  11
BRANCH   2  13
ATOM     13  O   UNL     1      12.738  13.434  45.126  0.00  0.00    +0.000 OA
BRANCH  13  14
ATOM     14  C   UNL     1      13.979  14.043  45.013  0.00  0.00    +0.000 A 
ATOM     15  C   UNL     1      14.136  15.393  44.670  0.00  0.00    +0.000 A 
ATOM     16  C   UNL     1      15.109  13.267  45.267  0.00  0.00    +0.000 A 
ATOM     17  C   UNL     1      15.405  15.955  44.598  0.00  0.00    +0.000 A 
ATOM     18  C   UNL     1      16.384  13.828  45.182  0.00  0.00    +0.000 A 
ATOM     19  C   UNL     1      16.529  15.176  44.854  0.00  0.00    +0.000 A 
BRANCH  19  20
ATOM     20  O   UNL     1      17.762  15.743  44.798  0.00  0.00    +0.000 OA
ATOM     21  H   UNL     1      18.227  15.399  44.013  0.00  0.00    +0.000 HD
ENDBRANCH  19  20
ENDBRANCH  13  14
ENDBRANCH   2  13
BRANCH   3  22
ATOM     22  C   UNL     1       8.015  13.403  44.521  0.00  0.00    +0.000 C 
BRANCH  22  23
ATOM     23  O   UNL     1       7.016  14.092  43.768  0.00  0.00    +0.000 OA
ATOM     24  H   UNL     1       6.152  13.710  43.990  0.00  0.00    +0.000 HD
ENDBRANCH  22  23
ENDBRANCH   3  22
TORSDOF 8
ENDMDL
MODEL 2
REMARK VINA RESULT:    -5.696      0.439      1.178
REMARK INTER + INTRA:          -8.113
REMARK INTER:                  -7.549
REMARK INTRA:                  -0.564
REMARK UNBOUND:                -0.586
REMARK  Name = opt64.pdb
REMARK  8 active torsions:
REMARK  status: ('A' for Active; 'I' for Inactive)
REMARK    1  A    between atoms: C_2  and  O_4
REMARK    2  A    between atoms: C_3  and  C_7
REMARK    3  A    between atoms: O_4  and  C_8
REMARK    4  A    between atoms: C_5  and  O_9
REMARK    5  A    between atoms: C_6  and  O_11
REMARK    6  A    between atoms: C_7  and  O_12
REMARK    7  A    between atoms: C_10  and  O_15
REMARK    8  A    between atoms: C_18  and  O_19
REMARK                            x       y       z     vdW  Elec       q    Type
REMARK                         _______ _______ _______ _____ _____    ______ ____
ROOT
ATOM      1  O   UNL     1      10.781  13.308  44.580  0.00  0.00    +0.000 OA
ATOM      2  C   UNL     1      12.099  13.497  44.023  0.00  0.00    +0.000 C 
ATOM      3  C   UNL     1       9.720  13.580  43.639  0.00  0.00    +0.000 C 
ATOM      4  C   UNL     1      12.310  12.428  42.923  0.00  0.00    +0.000 C 
ATOM      5  C   UNL     1       9.772  12.466  42.575  0.00  0.00    +0.000 C 
ATOM      6  C   UNL     1      11.160  12.514  41.885  0.00  0.00    +0.000 C 
ENDROOT
BRANCH   4   7
ATOM      7  O   UNL     1      12.348  11.112  43.497  0.00  0.00    +0.000 OA
ATOM      8  H   UNL     1      12.597  11.199  44.437  0.00  0.00    +0.000 HD
ENDBRANCH   4   7
BRANCH   5   9
ATOM      9  O   UNL     1       8.731  12.659  41.615  0.00  0.00    +0.000 OA
ATOM     10  H   UNL     1       9.037  12.310  40.761  0.00  0.00    +0.000 HD
ENDBRANCH   5   9
BRANCH   6  11
ATOM     11  O   UNL     1      11.284  11.425  40.976  0.00  0.00    +0.000 OA
ATOM     12  H   UNL     1      11.958  10.844  41.378  0.00  0.00    +0.000 HD
ENDBRANCH   6  11
BRANCH   2  13
ATOM     13  O   UNL     1      13.108  13.368  45.050  0.00  0.00    +0.000 OA
BRANCH  13  14
ATOM     14  C   UNL     1      14.270  14.126  45.060  0.00  0.00    +0.000 A 
ATOM     15  C   UNL     1      15.505  13.619  45.485  0.00  0.00    +0.000 A 
ATOM     16  C   UNL     1      14.191  15.444  44.614  0.00  0.00    +0.000 A 
ATOM     17  C   UNL     1      16.642  14.418  45.448  0.00  0.00    +0.000 A 
ATOM     18  C   UNL     1      15.328  16.250  44.589  0.00  0.00    +0.000 A 
ATOM     19  C   UNL     1      16.556  15.731  45.000  0.00  0.00    +0.000 A 
BRANCH  19  20
ATOM     20  O   UNL     1      17.679  16.496  44.952  0.00  0.00    +0.000 OA
ATOM     21  H   UNL     1      18.452  15.906  44.871  0.00  0.00    +0.000 HD
ENDBRANCH  19  20
ENDBRANCH  13  14
ENDBRANCH   2  13
BRANCH   3  22
ATOM     22  C   UNL     1       8.396  13.642  44.416  0.00  0.00    +0.000 C 
BRANCH  22  23
ATOM     23  O   UNL     1       7.450  14.351  43.614  0.00  0.00    +0.000 OA
ATOM     24  H   UNL     1       6.720  13.747  43.402  0.00  0.00    +0.000 HD
ENDBRANCH  22  23
ENDBRANCH   3  22
TORSDOF 8
ENDMDL
MODEL 3
REMARK VINA RESULT:    -5.447      1.958      6.963
REMARK INTER + INTRA:          -7.785
REMARK INTER:                  -7.331
REMARK INTRA:                  -0.454
REMARK UNBOUND:                -0.586
REMARK  Name = opt64.pdb
REMARK  8 active torsions:
REMARK  status: ('A' for Active; 'I' for Inactive)
REMARK    1  A    between atoms: C_2  and  O_4
REMARK    2  A    between atoms: C_3  and  C_7
REMARK    3  A    between atoms: O_4  and  C_8
REMARK    4  A    between atoms: C_5  and  O_9
REMARK    5  A    between atoms: C_6  and  O_11
REMARK    6  A    between atoms: C_7  and  O_12
REMARK    7  A    between atoms: C_10  and  O_15
REMARK    8  A    between atoms: C_18  and  O_19
REMARK                            x       y       z     vdW  Elec       q    Type
REMARK                         _______ _______ _______ _____ _____    ______ ____
ROOT
ATOM      1  O   UNL     1      15.390  13.875  42.483  0.00  0.00    +0.000 OA
ATOM      2  C   UNL     1      14.264  13.753  43.378  0.00  0.00    +0.000 C 
ATOM      3  C   UNL     1      16.354  14.862  42.910  0.00  0.00    +0.000 C 
ATOM      4  C   UNL     1      14.782  13.193  44.725  0.00  0.00    +0.000 C 
ATOM      5  C   UNL     1      17.024  14.310  44.183  0.00  0.00    +0.000 C 
ATOM      6  C   UNL     1      15.928  14.094  45.258  0.00  0.00    +0.000 C 
ENDROOT
BRANCH   4   7
ATOM      7  O   UNL     1      15.259  11.848  44.564  0.00  0.00    +0.000 OA
ATOM      8  H   UNL     1      15.788  11.618  45.351  0.00  0.00    +0.000 HD
ENDBRANCH   4   7
BRANCH   5   9
ATOM      9  O   UNL     1      18.011  15.230  44.654  0.00  0.00    +0.000 OA
ATOM     10  H   UNL     1      17.903  15.325  45.615  0.00  0.00    +0.000 HD
ENDBRANCH   5   9
BRANCH   6  11
ATOM     11  O   UNL     1      16.496  13.476  46.408  0.00  0.00    +0.000 OA
ATOM     12  H   UNL     1      17.173  14.107  46.718  0.00  0.00    +0.000 HD
ENDBRANCH   6  11
BRANCH   2  13
ATOM     13  O   UNL     1      13.263  12.873  42.819  0.00  0.00    +0.000 OA
BRANCH  13  14
ATOM     14  C   UNL     1      11.916  12.975  43.130  0.00  0.00    +0.000 A 
ATOM     15  C   UNL     1      10.954  12.072  42.655  0.00  0.00    +0.000 A 
ATOM     16  C   UNL     1      11.518  14.020  43.962  0.00  0.00    +0.000 A 
ATOM     17  C   UNL     1       9.621  12.210  43.023  0.00  0.00    +0.000 A 
ATOM     18  C   UNL     1      10.177  14.167  44.320  0.00  0.00    +0.000 A 
ATOM     19  C   UNL     1       9.231  13.254  43.855  0.00  0.00    +0.000 A 
BRANCH  19  20
ATOM     20  O   UNL     1       7.927  13.366  44.220  0.00  0.00    +0.000 OA
ATOM     21  H   UNL     1       7.552  12.470  44.312  0.00  0.00    +0.000 HD
ENDBRANCH  19  20
ENDBRANCH  13  14
ENDBRANCH   2  13
BRANCH   3  22
ATOM     22  C   UNL     1      17.327  15.112  41.748  0.00  0.00    +0.000 C 
BRANCH  22  23
ATOM     23  O   UNL     1      18.406  14.184  41.872  0.00  0.00    +0.000 OA
ATOM     24  H   UNL     1      18.444  13.885  42.794  0.00  0.00    +0.000 HD
ENDBRANCH  22  23
ENDBRANCH   3  22
TORSDOF 8
ENDMDL
MODEL 4
REMARK VINA RESULT:    -5.295      1.597      6.608
REMARK INTER + INTRA:          -7.583
REMARK INTER:                  -7.032
REMARK INTRA:                  -0.551
REMARK UNBOUND:                -0.586
REMARK  Name = opt64.pdb
REMARK  8 active torsions:
REMARK  status: ('A' for Active; 'I' for Inactive)
REMARK    1  A    between atoms: C_2  and  O_4
REMARK    2  A    between atoms: C_3  and  C_7
REMARK    3  A    between atoms: O_4  and  C_8
REMARK    4  A    between atoms: C_5  and  O_9
REMARK    5  A    between atoms: C_6  and  O_11
REMARK    6  A    between atoms: C_7  and  O_12
REMARK    7  A    between atoms: C_10  and  O_15
REMARK    8  A    between atoms: C_18  and  O_19
REMARK                            x       y       z     vdW  Elec       q    Type
REMARK                         _______ _______ _______ _____ _____    ______ ____
ROOT
ATOM      1  O   UNL     1      13.264  14.512  43.878  0.00  0.00    +0.000 OA
ATOM      2  C   UNL     1      12.294  13.447  43.976  0.00  0.00    +0.000 C 
ATOM      3  C   UNL     1      14.282  14.452  44.901  0.00  0.00    +0.000 C 
ATOM      4  C   UNL     1      13.020  12.111  43.685  0.00  0.00    +0.000 C 
ATOM      5  C   UNL     1      15.146  13.213  44.598  0.00  0.00    +0.000 C 
ATOM      6  C   UNL     1      14.234  11.959  44.640  0.00  0.00    +0.000 C 
ENDROOT
BRANCH   4   7
ATOM      7  O   UNL     1      13.468  12.064  42.321  0.00  0.00    +0.000 OA
ATOM      8  H   UNL     1      13.971  11.238  42.196  0.00  0.00    +0.000 HD
ENDBRANCH   4   7
BRANCH   5   9
ATOM      9  O   UNL     1      16.193  13.100  45.564  0.00  0.00    +0.000 OA
ATOM     10  H   UNL     1      15.825  13.313  46.438  0.00  0.00    +0.000 HD
ENDBRANCH   5   9
BRANCH   6  11
ATOM     11  O   UNL     1      14.979  10.809  44.251  0.00  0.00    +0.000 OA
ATOM     12  H   UNL     1      15.858  11.156  44.007  0.00  0.00    +0.000 HD
ENDBRANCH   6  11
BRANCH   2  13
ATOM     13  O   UNL     1      11.219  13.651  43.032  0.00  0.00    +0.000 OA
BRANCH  13  14
ATOM     14  C   UNL     1       9.890  13.407  43.344  0.00  0.00    +0.000 A 
ATOM     15  C   UNL     1       9.294  13.849  44.534  0.00  0.00    +0.000 A 
ATOM     16  C   UNL     1       9.123  12.701  42.419  0.00  0.00    +0.000 A 
ATOM     17  C   UNL     1       7.949  13.598  44.780  0.00  0.00    +0.000 A 
ATOM     18  C   UNL     1       7.777  12.437  42.672  0.00  0.00    +0.000 A 
ATOM     19  C   UNL     1       7.190  12.894  43.852  0.00  0.00    +0.000 A 
BRANCH  19  20
ATOM     20  O   UNL     1       5.872  12.672  44.098  0.00  0.00    +0.000 OA
ATOM     21  H   UNL     1       5.619  13.162  44.902  0.00  0.00    +0.000 HD
ENDBRANCH  19  20
ENDBRANCH  13  14
ENDBRANCH   2  13
BRANCH   3  22
ATOM     22  C   UNL     1      15.058  15.777  44.880  0.00  0.00    +0.000 C 
BRANCH  22  23
ATOM     23  O   UNL     1      16.197  15.605  44.035  0.00  0.00    +0.000 OA
ATOM     24  H   UNL     1      16.505  16.483  43.760  0.00  0.00    +0.000 HD
ENDBRANCH  22  23
ENDBRANCH   3  22
TORSDOF 8
ENDMDL
MODEL 5
REMARK VINA RESULT:    -5.209      1.677      6.626
REMARK INTER + INTRA:          -7.470
REMARK INTER:                  -6.901
REMARK INTRA:                  -0.569
REMARK UNBOUND:                -0.586
REMARK  Name = opt64.pdb
REMARK  8 active torsions:
REMARK  status: ('A' for Active; 'I' for Inactive)
REMARK    1  A    between atoms: C_2  and  O_4
REMARK    2  A    between atoms: C_3  and  C_7
REMARK    3  A    between atoms: O_4  and  C_8
REMARK    4  A    between atoms: C_5  and  O_9
REMARK    5  A    between atoms: C_6  and  O_11
REMARK    6  A    between atoms: C_7  and  O_12
REMARK    7  A    between atoms: C_10  and  O_15
REMARK    8  A    between atoms: C_18  and  O_19
REMARK                            x       y       z     vdW  Elec       q    Type
REMARK                         _______ _______ _______ _____ _____    ______ ____
ROOT
ATOM      1  O   UNL     1      13.053  14.662  43.658  0.00  0.00    +0.000 OA
ATOM      2  C   UNL     1      12.089  13.589  43.717  0.00  0.00    +0.000 C 
ATOM      3  C   UNL     1      13.997  14.642  44.750  0.00  0.00    +0.000 C 
ATOM      4  C   UNL     1      12.848  12.254  43.514  0.00  0.00    +0.000 C 
ATOM      5  C   UNL     1      14.893  13.405  44.542  0.00  0.00    +0.000 C 
ATOM      6  C   UNL     1      13.993  12.142  44.555  0.00  0.00    +0.000 C 
ENDROOT
BRANCH   4   7
ATOM      7  O   UNL     1      13.390  12.177  42.186  0.00  0.00    +0.000 OA
ATOM      8  H   UNL     1      13.649  11.252  42.018  0.00  0.00    +0.000 HD
ENDBRANCH   4   7
BRANCH   5   9
ATOM      9  O   UNL     1      15.871  13.331  45.582  0.00  0.00    +0.000 OA
ATOM     10  H   UNL     1      15.503  13.753  46.375  0.00  0.00    +0.000 HD
ENDBRANCH   5   9
BRANCH   6  11
ATOM     11  O   UNL     1      14.775  10.991  44.250  0.00  0.00    +0.000 OA
ATOM     12  H   UNL     1      14.255  10.241  44.596  0.00  0.00    +0.000 HD
ENDBRANCH   6  11
BRANCH   2  13
ATOM     13  O   UNL     1      11.081  13.755  42.695  0.00  0.00    +0.000 OA
BRANCH  13  14
ATOM     14  C   UNL     1       9.751  13.413  42.891  0.00  0.00    +0.000 A 
ATOM     15  C   UNL     1       8.899  13.037  41.843  0.00  0.00    +0.000 A 
ATOM     16  C   UNL     1       9.258  13.439  44.195  0.00  0.00    +0.000 A 
ATOM     17  C   UNL     1       7.581  12.680  42.104  0.00  0.00    +0.000 A 
ATOM     18  C   UNL     1       7.932  13.094  44.455  0.00  0.00    +0.000 A 
ATOM     19  C   UNL     1       7.097  12.706  43.407  0.00  0.00    +0.000 A 
BRANCH  19  20
ATOM     20  O   UNL     1       5.812  12.337  43.650  0.00  0.00    +0.000 OA
ATOM     21  H   UNL     1       5.364  13.063  44.124  0.00  0.00    +0.000 HD
ENDBRANCH  19  20
ENDBRANCH  13  14
ENDBRANCH   2  13
BRANCH   3  22
ATOM     22  C   UNL     1      14.759  15.975  44.747  0.00  0.00    +0.000 C 
BRANCH  22  23
ATOM     23  O   UNL     1      15.946  15.800  43.972  0.00  0.00    +0.000 OA
ATOM     24  H   UNL     1      16.075  16.596  43.432  0.00  0.00    +0.000 HD
ENDBRANCH  22  23
ENDBRANCH   3  22
TORSDOF 8
ENDMDL
MODEL 6
REMARK VINA RESULT:    -5.159      1.254      2.911
REMARK INTER + INTRA:          -7.404
REMARK INTER:                  -6.903
REMARK INTRA:                  -0.501
REMARK UNBOUND:                -0.586
REMARK  Name = opt64.pdb
REMARK  8 active torsions:
REMARK  status: ('A' for Active; 'I' for Inactive)
REMARK    1  A    between atoms: C_2  and  O_4
REMARK    2  A    between atoms: C_3  and  C_7
REMARK    3  A    between atoms: O_4  and  C_8
REMARK    4  A    between atoms: C_5  and  O_9
REMARK    5  A    between atoms: C_6  and  O_11
REMARK    6  A    between atoms: C_7  and  O_12
REMARK    7  A    between atoms: C_10  and  O_15
REMARK    8  A    between atoms: C_18  and  O_19
REMARK                            x       y       z     vdW  Elec       q    Type
REMARK                         _______ _______ _______ _____ _____    ______ ____
ROOT
ATOM      1  O   UNL     1      11.906  13.438  42.987  0.00  0.00    +0.000 OA
ATOM      2  C   UNL     1      11.790  14.049  44.289  0.00  0.00    +0.000 C 
ATOM      3  C   UNL     1      11.116  12.237  42.848  0.00  0.00    +0.000 C 
ATOM      4  C   UNL     1      10.335  14.553  44.453  0.00  0.00    +0.000 C 
ATOM      5  C   UNL     1       9.638  12.672  42.860  0.00  0.00    +0.000 C 
ATOM      6  C   UNL     1       9.347  13.382  44.208  0.00  0.00    +0.000 C 
ENDROOT
BRANCH   4   7
ATOM      7  O   UNL     1      10.062  15.620  43.531  0.00  0.00    +0.000 OA
ATOM      8  H   UNL     1       9.138  15.904  43.663  0.00  0.00    +0.000 HD
ENDBRANCH   4   7
BRANCH   5   9
ATOM      9  O   UNL     1       8.792  11.530  42.706  0.00  0.00    +0.000 OA
ATOM     10  H   UNL     1       8.606  11.168  43.588  0.00  0.00    +0.000 HD
ENDBRANCH   5   9
BRANCH   6  11
ATOM     11  O   UNL     1       8.020  13.898  44.204  0.00  0.00    +0.000 OA
ATOM     12  H   UNL     1       7.468  13.161  44.527  0.00  0.00    +0.000 HD
ENDBRANCH   6  11
BRANCH   2  13
ATOM     13  O   UNL     1      12.720  15.148  44.420  0.00  0.00    +0.000 OA
BRANCH  13  14
ATOM     14  C   UNL     1      14.067  14.962  44.694  0.00  0.00    +0.000 A 
ATOM     15  C   UNL     1      14.602  13.726  45.083  0.00  0.00    +0.000 A 
ATOM     16  C   UNL     1      14.916  16.061  44.559  0.00  0.00    +0.000 A 
ATOM     17  C   UNL     1      15.965  13.595  45.318  0.00  0.00    +0.000 A 
ATOM     18  C   UNL     1      16.282  15.932  44.809  0.00  0.00    +0.000 A 
ATOM     19  C   UNL     1      16.806  14.694  45.181  0.00  0.00    +0.000 A 
BRANCH  19  20
ATOM     20  O   UNL     1      18.139  14.547  45.397  0.00  0.00    +0.000 OA
ATOM     21  H   UNL     1      18.484  15.373  45.786  0.00  0.00    +0.000 HD
ENDBRANCH  19  20
ENDBRANCH  13  14
ENDBRANCH   2  13
BRANCH   3  22
ATOM     22  C   UNL     1      11.550  11.526  41.558  0.00  0.00    +0.000 C 
BRANCH  22  23
ATOM     23  O   UNL     1      10.534  11.740  40.577  0.00  0.00    +0.000 OA
ATOM     24  H   UNL     1      10.948  12.134  39.793  0.00  0.00    +0.000 HD
ENDBRANCH  22  23
ENDBRANCH   3  22
TORSDOF 8
ENDMDL
MODEL 7
REMARK VINA RESULT:    -5.074      1.637      2.231
REMARK INTER + INTRA:          -7.292
REMARK INTER:                  -6.784
REMARK INTRA:                  -0.508
REMARK UNBOUND:                -0.586
REMARK  Name = opt64.pdb
REMARK  8 active torsions:
REMARK  status: ('A' for Active; 'I' for Inactive)
REMARK    1  A    between atoms: C_2  and  O_4
REMARK    2  A    between atoms: C_3  and  C_7
REMARK    3  A    between atoms: O_4  and  C_8
REMARK    4  A    between atoms: C_5  and  O_9
REMARK    5  A    between atoms: C_6  and  O_11
REMARK    6  A    between atoms: C_7  and  O_12
REMARK    7  A    between atoms: C_10  and  O_15
REMARK    8  A    between atoms: C_18  and  O_19
REMARK                            x       y       z     vdW  Elec       q    Type
REMARK                         _______ _______ _______ _____ _____    ______ ____
ROOT
ATOM      1  O   UNL     1      10.676  13.760  44.234  0.00  0.00    +0.000 OA
ATOM      2  C   UNL     1      11.813  14.132  43.425  0.00  0.00    +0.000 C 
ATOM      3  C   UNL     1       9.442  13.697  43.488  0.00  0.00    +0.000 C 
ATOM      4  C   UNL     1      12.065  12.994  42.404  0.00  0.00    +0.000 C 
ATOM      5  C   UNL     1       9.557  12.490  42.536  0.00  0.00    +0.000 C 
ATOM      6  C   UNL     1      10.768  12.721  41.597  0.00  0.00    +0.000 C 
ENDROOT
BRANCH   4   7
ATOM      7  O   UNL     1      12.480  11.795  43.076  0.00  0.00    +0.000 OA
ATOM      8  H   UNL     1      11.893  11.660  43.844  0.00  0.00    +0.000 HD
ENDBRANCH   4   7
BRANCH   5   9
ATOM      9  O   UNL     1       8.355  12.352  41.775  0.00  0.00    +0.000 OA
ATOM     10  H   UNL     1       8.407  11.521  41.274  0.00  0.00    +0.000 HD
ENDBRANCH   5   9
BRANCH   6  11
ATOM     11  O   UNL     1      10.972  11.571  40.782  0.00  0.00    +0.000 OA
ATOM     12  H   UNL     1      11.225  10.867  41.408  0.00  0.00    +0.000 HD
ENDBRANCH   6  11
BRANCH   2  13
ATOM     13  O   UNL     1      12.981  14.334  44.251  0.00  0.00    +0.000 OA
BRANCH  13  14
ATOM     14  C   UNL     1      13.437  15.593  44.611  0.00  0.00    +0.000 A 
ATOM     15  C   UNL     1      14.797  15.934  44.627  0.00  0.00    +0.000 A 
ATOM     16  C   UNL     1      12.489  16.554  44.958  0.00  0.00    +0.000 A 
ATOM     17  C   UNL     1      15.193  17.221  44.971  0.00  0.00    +0.000 A 
ATOM     18  C   UNL     1      12.887  17.842  45.316  0.00  0.00    +0.000 A 
ATOM     19  C   UNL     1      14.241  18.176  45.314  0.00  0.00    +0.000 A 
BRANCH  19  20
ATOM     20  O   UNL     1      14.642  19.435  45.631  0.00  0.00    +0.000 OA
ATOM     21  H   UNL     1      13.965  20.064  45.317  0.00  0.00    +0.000 HD
ENDBRANCH  19  20
ENDBRANCH  13  14
ENDBRANCH   2  13
BRANCH   3  22
ATOM     22  C   UNL     1       8.283  13.596  44.490  0.00  0.00    +0.000 C 
BRANCH  22  23
ATOM     23  O   UNL     1       7.084  13.982  43.816  0.00  0.00    +0.000 OA
ATOM     24  H   UNL     1       6.962  13.394  43.054  0.00  0.00    +0.000 HD
ENDBRANCH  22  23
ENDBRANCH   3  22
TORSDOF 8
ENDMDL
MODEL 8
REMARK VINA RESULT:    -5.044      2.490      3.795
REMARK INTER + INTRA:          -7.251
REMARK INTER:                  -6.671
REMARK INTRA:                  -0.580
REMARK UNBOUND:                -0.586
REMARK  Name = opt64.pdb
REMARK  8 active torsions:
REMARK  status: ('A' for Active; 'I' for Inactive)
REMARK    1  A    between atoms: C_2  and  O_4
REMARK    2  A    between atoms: C_3  and  C_7
REMARK    3  A    between atoms: O_4  and  C_8
REMARK    4  A    between atoms: C_5  and  O_9
REMARK    5  A    between atoms: C_6  and  O_11
REMARK    6  A    between atoms: C_7  and  O_12
REMARK    7  A    between atoms: C_10  and  O_15
REMARK    8  A    between atoms: C_18  and  O_19
REMARK                            x       y       z     vdW  Elec       q    Type
REMARK                         _______ _______ _______ _____ _____    ______ ____
ROOT
ATOM      1  O   UNL     1       8.539  14.893  42.124  0.00  0.00    +0.000 OA
ATOM      2  C   UNL     1       9.412  13.850  42.609  0.00  0.00    +0.000 C 
ATOM      3  C   UNL     1       7.506  14.407  41.240  0.00  0.00    +0.000 C 
ATOM      4  C   UNL     1       8.577  12.909  43.511  0.00  0.00    +0.000 C 
ATOM      5  C   UNL     1       6.542  13.566  42.099  0.00  0.00    +0.000 C 
ATOM      6  C   UNL     1       7.341  12.394  42.726  0.00  0.00    +0.000 C 
ENDROOT
BRANCH   4   7
ATOM      7  O   UNL     1       8.146  13.595  44.697  0.00  0.00    +0.000 OA
ATOM      8  H   UNL     1       8.529  14.493  44.683  0.00  0.00    +0.000 HD
ENDBRANCH   4   7
BRANCH   5   9
ATOM      9  O   UNL     1       5.476  13.066  41.290  0.00  0.00    +0.000 OA
ATOM     10  H   UNL     1       5.128  13.801  40.757  0.00  0.00    +0.000 HD
ENDBRANCH   5   9
BRANCH   6  11
ATOM     11  O   UNL     1       6.505  11.664  43.618  0.00  0.00    +0.000 OA
ATOM     12  H   UNL     1       6.097  10.972  43.064  0.00  0.00    +0.000 HD
ENDBRANCH   6  11
BRANCH   2  13
ATOM     13  O   UNL     1      10.513  14.414  43.354  0.00  0.00    +0.000 OA
BRANCH  13  14
ATOM     14  C   UNL     1      11.680  13.712  43.617  0.00  0.00    +0.000 A 
ATOM     15  C   UNL     1      12.285  12.863  42.680  0.00  0.00    +0.000 A 
ATOM     16  C   UNL     1      12.273  13.879  44.867  0.00  0.00    +0.000 A 
ATOM     17  C   UNL     1      13.469  12.205  42.990  0.00  0.00    +0.000 A 
ATOM     18  C   UNL     1      13.454  13.209  45.184  0.00  0.00    +0.000 A 
ATOM     19  C   UNL     1      14.055  12.377  44.240  0.00  0.00    +0.000 A 
BRANCH  19  20
ATOM     20  O   UNL     1      15.223  11.742  44.523  0.00  0.00    +0.000 OA
ATOM     21  H   UNL     1      15.102  11.221  45.338  0.00  0.00    +0.000 HD
ENDBRANCH  19  20
ENDBRANCH  13  14
ENDBRANCH   2  13
BRANCH   3  22
ATOM     22  C   UNL     1       6.848  15.618  40.564  0.00  0.00    +0.000 C 
BRANCH  22  23
ATOM     23  O   UNL     1       6.220  15.164  39.364  0.00  0.00    +0.000 OA
ATOM     24  H   UNL     1       6.871  14.654  38.856  0.00  0.00    +0.000 HD
ENDBRANCH  22  23
ENDBRANCH   3  22
TORSDOF 8
ENDMDL
MODEL 9
REMARK VINA RESULT:    -5.043      1.938      3.394
REMARK INTER + INTRA:          -7.250
REMARK INTER:                  -6.931
REMARK INTRA:                  -0.319
REMARK UNBOUND:                -0.586
REMARK  Name = opt64.pdb
REMARK  8 active torsions:
REMARK  status: ('A' for Active; 'I' for Inactive)
REMARK    1  A    between atoms: C_2  and  O_4
REMARK    2  A    between atoms: C_3  and  C_7
REMARK    3  A    between atoms: O_4  and  C_8
REMARK    4  A    between atoms: C_5  and  O_9
REMARK    5  A    between atoms: C_6  and  O_11
REMARK    6  A    between atoms: C_7  and  O_12
REMARK    7  A    between atoms: C_10  and  O_15
REMARK    8  A    between atoms: C_18  and  O_19
REMARK                            x       y       z     vdW  Elec       q    Type
REMARK                         _______ _______ _______ _____ _____    ______ ____
ROOT
ATOM      1  O   UNL     1       8.780  11.982  42.825  0.00  0.00    +0.000 OA
ATOM      2  C   UNL     1       9.765  12.957  43.230  0.00  0.00    +0.000 C 
ATOM      3  C   UNL     1       7.503  12.157  43.476  0.00  0.00    +0.000 C 
ATOM      4  C   UNL     1       9.294  14.346  42.733  0.00  0.00    +0.000 C 
ATOM      5  C   UNL     1       6.897  13.462  42.924  0.00  0.00    +0.000 C 
ATOM      6  C   UNL     1       7.861  14.629  43.258  0.00  0.00    +0.000 C 
ENDROOT
BRANCH   4   7
ATOM      7  O   UNL     1       9.304  14.400  41.298  0.00  0.00    +0.000 OA
ATOM      8  H   UNL     1       9.612  15.286  41.031  0.00  0.00    +0.000 HD
ENDBRANCH   4   7
BRANCH   5   9
ATOM      9  O   UNL     1       5.614  13.691  43.512  0.00  0.00    +0.000 OA
ATOM     10  H   UNL     1       5.717  14.352  44.217  0.00  0.00    +0.000 HD
ENDBRANCH   5   9
BRANCH   6  11
ATOM     11  O   UNL     1       7.387  15.832  42.661  0.00  0.00    +0.000 OA
ATOM     12  H   UNL     1       6.775  15.535  41.961  0.00  0.00    +0.000 HD
ENDBRANCH   6  11
BRANCH   2  13
ATOM     13  O   UNL     1      11.058  12.635  42.671  0.00  0.00    +0.000 OA
BRANCH  13  14
ATOM     14  C   UNL     1      12.242  12.794  43.377  0.00  0.00    +0.000 A 
ATOM     15  C   UNL     1      12.314  13.482  44.596  0.00  0.00    +0.000 A 
ATOM     16  C   UNL     1      13.398  12.228  42.844  0.00  0.00    +0.000 A 
ATOM     17  C   UNL     1      13.524  13.587  45.271  0.00  0.00    +0.000 A 
ATOM     18  C   UNL     1      14.615  12.344  43.515  0.00  0.00    +0.000 A 
ATOM     19  C   UNL     1      14.674  13.018  44.734  0.00  0.00    +0.000 A 
BRANCH  19  20
ATOM     20  O   UNL     1      15.847  13.113  45.415  0.00  0.00    +0.000 OA
ATOM     21  H   UNL     1      16.019  14.053  45.608  0.00  0.00    +0.000 HD
ENDBRANCH  19  20
ENDBRANCH  13  14
ENDBRANCH   2  13
BRANCH   3  22
ATOM     22  C   UNL     1       6.653  10.907  43.205  0.00  0.00    +0.000 C 
BRANCH  22  23
ATOM     23  O   UNL     1       7.428   9.763  43.564  0.00  0.00    +0.000 OA
ATOM     24  H   UNL     1       7.274   9.072  42.901  0.00  0.00    +0.000 HD
ENDBRANCH  22  23
ENDBRANCH   3  22
TORSDOF 8
ENDMDL
MODEL 10
REMARK VINA RESULT:    -4.982      2.120      3.260
REMARK INTER + INTRA:          -7.169
REMARK INTER:                  -6.672
REMARK INTRA:                  -0.497
REMARK UNBOUND:                -0.586
REMARK  Name = opt64.pdb
REMARK  8 active torsions:
REMARK  status: ('A' for Active; 'I' for Inactive)
REMARK    1  A    between atoms: C_2  and  O_4
REMARK    2  A    between atoms: C_3  and  C_7
REMARK    3  A    between atoms: O_4  and  C_8
REMARK    4  A    between atoms: C_5  and  O_9
REMARK    5  A    between atoms: C_6  and  O_11
REMARK    6  A    between atoms: C_7  and  O_12
REMARK    7  A    between atoms: C_10  and  O_15
REMARK    8  A    between atoms: C_18  and  O_19
REMARK                            x       y       z     vdW  Elec       q    Type
REMARK                         _______ _______ _______ _____ _____    ______ ____
ROOT
ATOM      1  O   UNL     1      12.787  14.079  42.845  0.00  0.00    +0.000 OA
ATOM      2  C   UNL     1      14.198  13.853  43.045  0.00  0.00    +0.000 C 
ATOM      3  C   UNL     1      12.092  12.927  42.322  0.00  0.00    +0.000 C 
ATOM      4  C   UNL     1      14.358  12.796  44.165  0.00  0.00    +0.000 C 
ATOM      5  C   UNL     1      12.083  11.866  43.440  0.00  0.00    +0.000 C 
ATOM      6  C   UNL     1      13.551  11.521  43.799  0.00  0.00    +0.000 C 
ENDROOT
BRANCH   4   7
ATOM      7  O   UNL     1      13.897  13.316  45.422  0.00  0.00    +0.000 OA
ATOM      8  H   UNL     1      13.392  12.614  45.873  0.00  0.00    +0.000 HD
ENDBRANCH   4   7
BRANCH   5   9
ATOM      9  O   UNL     1      11.389  10.697  42.998  0.00  0.00    +0.000 OA
ATOM     10  H   UNL     1      11.630  10.533  42.071  0.00  0.00    +0.000 HD
ENDBRANCH   5   9
BRANCH   6  11
ATOM     11  O   UNL     1      13.579  10.629  44.908  0.00  0.00    +0.000 OA
ATOM     12  H   UNL     1      12.757  10.819  45.398  0.00  0.00    +0.000 HD
ENDBRANCH   6  11
BRANCH   2  13
ATOM     13  O   UNL     1      14.863  15.081  43.414  0.00  0.00    +0.000 OA
BRANCH  13  14
ATOM     14  C   UNL     1      16.201  15.131  43.776  0.00  0.00    +0.000 A 
ATOM     15  C   UNL     1      16.640  15.652  45.001  0.00  0.00    +0.000 A 
ATOM     16  C   UNL     1      17.138  14.624  42.877  0.00  0.00    +0.000 A 
ATOM     17  C   UNL     1      17.992  15.651  45.320  0.00  0.00    +0.000 A 
ATOM     18  C   UNL     1      18.497  14.636  43.191  0.00  0.00    +0.000 A 
ATOM     19  C   UNL     1      18.921  15.143  44.419  0.00  0.00    +0.000 A 
BRANCH  19  20
ATOM     20  O   UNL     1      20.239  15.132  44.751  0.00  0.00    +0.000 OA
ATOM     21  H   UNL     1      20.416  14.337  45.288  0.00  0.00    +0.000 HD
ENDBRANCH  19  20
ENDBRANCH  13  14
ENDBRANCH   2  13
BRANCH   3  22
ATOM     22  C   UNL     1      10.694  13.375  41.872  0.00  0.00    +0.000 C 
BRANCH  22  23
ATOM     23  O   UNL     1      10.134  12.331  41.074  0.00  0.00    +0.000 OA
ATOM     24  H   UNL     1       9.396  12.702  40.564  0.00  0.00    +0.000 HD
ENDBRANCH  22  23
ENDBRANCH   3  22
TORSDOF 8
ENDMDL
MODEL 11
REMARK VINA RESULT:    -4.951      2.217      3.474
REMARK INTER + INTRA:          -7.128
REMARK INTER:                  -6.691
REMARK INTRA:                  -0.438
REMARK UNBOUND:                -0.586
REMARK  Name = opt64.pdb
REMARK  8 active torsions:
REMARK  status: ('A' for Active; 'I' for Inactive)
REMARK    1  A    between atoms: C_2  and  O_4
REMARK    2  A    between atoms: C_3  and  C_7
REMARK    3  A    between atoms: O_4  and  C_8
REMARK    4  A    between atoms: C_5  and  O_9
REMARK    5  A    between atoms: C_6  and  O_11
REMARK    6  A    between atoms: C_7  and  O_12
REMARK    7  A    between atoms: C_10  and  O_15
REMARK    8  A    between atoms: C_18  and  O_19
REMARK                            x       y       z     vdW  Elec       q    Type
REMARK                         _______ _______ _______ _____ _____    ______ ____
ROOT
ATOM      1  O   UNL     1      12.995  14.174  42.815  0.00  0.00    +0.000 OA
ATOM      2  C   UNL     1      14.400  13.954  43.059  0.00  0.00    +0.000 C 
ATOM      3  C   UNL     1      12.322  13.017  42.274  0.00  0.00    +0.000 C 
ATOM      4  C   UNL     1      14.530  12.901  44.187  0.00  0.00    +0.000 C 
ATOM      5  C   UNL     1      12.282  11.960  43.395  0.00  0.00    +0.000 C 
ATOM      6  C   UNL     1      13.740  11.622  43.799  0.00  0.00    +0.000 C 
ENDROOT
BRANCH   4   7
ATOM      7  O   UNL     1      14.028  13.424  45.427  0.00  0.00    +0.000 OA
ATOM      8  H   UNL     1      13.443  12.751  45.824  0.00  0.00    +0.000 HD
ENDBRANCH   4   7
BRANCH   5   9
ATOM      9  O   UNL     1      11.608  10.787  42.935  0.00  0.00    +0.000 OA
ATOM     10  H   UNL     1      11.203  10.986  42.075  0.00  0.00    +0.000 HD
ENDBRANCH   5   9
BRANCH   6  11
ATOM     11  O   UNL     1      13.738  10.733  44.912  0.00  0.00    +0.000 OA
ATOM     12  H   UNL     1      14.078  11.267  45.655  0.00  0.00    +0.000 HD
ENDBRANCH   6  11
BRANCH   2  13
ATOM     13  O   UNL     1      15.049  15.186  43.445  0.00  0.00    +0.000 OA
BRANCH  13  14
ATOM     14  C   UNL     1      16.383  15.247  43.819  0.00  0.00    +0.000 A 
ATOM     15  C   UNL     1      17.393  14.535  43.157  0.00  0.00    +0.000 A 
ATOM     16  C   UNL     1      16.720  16.068  44.894  0.00  0.00    +0.000 A 
ATOM     17  C   UNL     1      18.717  14.656  43.560  0.00  0.00    +0.000 A 
ATOM     18  C   UNL     1      18.048  16.179  45.308  0.00  0.00    +0.000 A 
ATOM     19  C   UNL     1      19.047  15.477  44.633  0.00  0.00    +0.000 A 
BRANCH  19  20
ATOM     20  O   UNL     1      20.348  15.601  45.005  0.00  0.00    +0.000 OA
ATOM     21  H   UNL     1      20.445  15.254  45.912  0.00  0.00    +0.000 HD
ENDBRANCH  19  20
ENDBRANCH  13  14
ENDBRANCH   2  13
BRANCH   3  22
ATOM     22  C   UNL     1      10.936  13.458  41.781  0.00  0.00    +0.000 C 
BRANCH  22  23
ATOM     23  O   UNL     1      10.395  12.400  40.989  0.00  0.00    +0.000 OA
ATOM     24  H   UNL     1       9.623  12.038  41.453  0.00  0.00    +0.000 HD
ENDBRANCH  22  23
ENDBRANCH   3  22
TORSDOF 8
ENDMDL
MODEL 12
REMARK VINA RESULT:    -4.907      1.814      2.440
REMARK INTER + INTRA:          -7.070
REMARK INTER:                  -6.727
REMARK INTRA:                  -0.343
REMARK UNBOUND:                -0.586
REMARK  Name = opt64.pdb
REMARK  8 active torsions:
REMARK  status: ('A' for Active; 'I' for Inactive)
REMARK    1  A    between atoms: C_2  and  O_4
REMARK    2  A    between atoms: C_3  and  C_7
REMARK    3  A    between atoms: O_4  and  C_8
REMARK    4  A    between atoms: C_5  and  O_9
REMARK    5  A    between atoms: C_6  and  O_11
REMARK    6  A    between atoms: C_7  and  O_12
REMARK    7  A    between atoms: C_10  and  O_15
REMARK    8  A    between atoms: C_18  and  O_19
REMARK                            x       y       z     vdW  Elec       q    Type
REMARK                         _______ _______ _______ _____ _____    ______ ____
ROOT
ATOM      1  O   UNL     1      12.429  14.048  43.228  0.00  0.00    +0.000 OA
ATOM      2  C   UNL     1      12.625  13.053  42.201  0.00  0.00    +0.000 C 
ATOM      3  C   UNL     1      11.135  14.685  43.167  0.00  0.00    +0.000 C 
ATOM      4  C   UNL     1      11.638  11.890  42.468  0.00  0.00    +0.000 C 
ATOM      5  C   UNL     1      10.095  13.619  43.563  0.00  0.00    +0.000 C 
ATOM      6  C   UNL     1      10.191  12.445  42.554  0.00  0.00    +0.000 C 
ENDROOT
BRANCH   4   7
ATOM      7  O   UNL     1      11.972  11.214  43.690  0.00  0.00    +0.000 OA
ATOM      8  H   UNL     1      11.145  10.880  44.087  0.00  0.00    +0.000 HD
ENDBRANCH   4   7
BRANCH   5   9
ATOM      9  O   UNL     1       8.783  14.186  43.545  0.00  0.00    +0.000 OA
ATOM     10  H   UNL     1       8.456  14.223  44.458  0.00  0.00    +0.000 HD
ENDBRANCH   5   9
BRANCH   6  11
ATOM     11  O   UNL     1       9.322  11.390  42.959  0.00  0.00    +0.000 OA
ATOM     12  H   UNL     1       9.896  10.775  43.454  0.00  0.00    +0.000 HD
ENDBRANCH   6  11
BRANCH   2  13
ATOM     13  O   UNL     1      13.986  12.570  42.213  0.00  0.00    +0.000 OA
BRANCH  13  14
ATOM     14  C   UNL     1      14.960  13.089  43.053  0.00  0.00    +0.000 A 
ATOM     15  C   UNL     1      14.924  12.937  44.446  0.00  0.00    +0.000 A 
ATOM     16  C   UNL     1      16.021  13.780  42.470  0.00  0.00    +0.000 A 
ATOM     17  C   UNL     1      15.943  13.458  45.235  0.00  0.00    +0.000 A 
ATOM     18  C   UNL     1      17.037  14.314  43.263  0.00  0.00    +0.000 A 
ATOM     19  C   UNL     1      16.999  14.145  44.647  0.00  0.00    +0.000 A 
BRANCH  19  20
ATOM     20  O   UNL     1      17.997  14.632  45.429  0.00  0.00    +0.000 OA
ATOM     21  H   UNL     1      17.818  14.380  46.354  0.00  0.00    +0.000 HD
ENDBRANCH  19  20
ENDBRANCH  13  14
ENDBRANCH   2  13
BRANCH   3  22
ATOM     22  C   UNL     1      11.160  15.909  44.095  0.00  0.00    +0.000 C 
BRANCH  22  23
ATOM     23  O   UNL     1      10.051  16.741  43.753  0.00  0.00    +0.000 OA
ATOM     24  H   UNL     1       9.736  16.479  42.873  0.00  0.00    +0.000 HD
ENDBRANCH  22  23
ENDBRANCH   3  22
TORSDOF 8
ENDMDL
MODEL 13
REMARK VINA RESULT:    -4.904      3.096      4.279
REMARK INTER + INTRA:          -7.066
REMARK INTER:                  -6.520
REMARK INTRA:                  -0.546
REMARK UNBOUND:                -0.586
REMARK  Name = opt64.pdb
REMARK  8 active torsions:
REMARK  status: ('A' for Active; 'I' for Inactive)
REMARK    1  A    between atoms: C_2  and  O_4
REMARK    2  A    between atoms: C_3  and  C_7
REMARK    3  A    between atoms: O_4  and  C_8
REMARK    4  A    between atoms: C_5  and  O_9
REMARK    5  A    between atoms: C_6  and  O_11
REMARK    6  A    between atoms: C_7  and  O_12
REMARK    7  A    between atoms: C_10  and  O_15
REMARK    8  A    between atoms: C_18  and  O_19
REMARK                            x       y       z     vdW  Elec       q    Type
REMARK                         _______ _______ _______ _____ _____    ______ ____
ROOT
ATOM      1  O   UNL     1      14.563  14.335  43.929  0.00  0.00    +0.000 OA
ATOM      2  C   UNL     1      15.120  13.389  42.992  0.00  0.00    +0.000 C 
ATOM      3  C   UNL     1      13.134  14.494  43.799  0.00  0.00    +0.000 C 
ATOM      4  C   UNL     1      14.567  11.986  43.343  0.00  0.00    +0.000 C 
ATOM      5  C   UNL     1      12.494  13.174  44.269  0.00  0.00    +0.000 C 
ATOM      6  C   UNL     1      13.015  12.028  43.364  0.00  0.00    +0.000 C 
ENDROOT
BRANCH   4   7
ATOM      7  O   UNL     1      15.057  11.555  44.622  0.00  0.00    +0.000 OA
ATOM      8  H   UNL     1      14.566  10.752  44.879  0.00  0.00    +0.000 HD
ENDBRANCH   4   7
BRANCH   5   9
ATOM      9  O   UNL     1      11.070  13.266  44.186  0.00  0.00    +0.000 OA
ATOM     10  H   UNL     1      10.698  12.388  44.371  0.00  0.00    +0.000 HD
ENDBRANCH   5   9
BRANCH   6  11
ATOM     11  O   UNL     1      12.532  10.777  43.844  0.00  0.00    +0.000 OA
ATOM     12  H   UNL     1      13.220  10.133  43.590  0.00  0.00    +0.000 HD
ENDBRANCH   6  11
BRANCH   2  13
ATOM     13  O   UNL     1      16.563  13.393  43.062  0.00  0.00    +0.000 OA
BRANCH  13  14
ATOM     14  C   UNL     1      17.352  14.203  42.259  0.00  0.00    +0.000 A 
ATOM     15  C   UNL     1      18.183  15.208  42.775  0.00  0.00    +0.000 A 
ATOM     16  C   UNL     1      17.316  13.988  40.882  0.00  0.00    +0.000 A 
ATOM     17  C   UNL     1      18.972  15.972  41.923  0.00  0.00    +0.000 A 
ATOM     18  C   UNL     1      18.097  14.764  40.026  0.00  0.00    +0.000 A 
ATOM     19  C   UNL     1      18.931  15.751  40.550  0.00  0.00    +0.000 A 
BRANCH  19  20
ATOM     20  O   UNL     1      19.721  16.493  39.731  0.00  0.00    +0.000 OA
ATOM     21  H   UNL     1      19.416  16.372  38.812  0.00  0.00    +0.000 HD
ENDBRANCH  19  20
ENDBRANCH  13  14
ENDBRANCH   2  13
BRANCH   3  22
ATOM     22  C   UNL     1      12.713  15.722  44.620  0.00  0.00    +0.000 C 
BRANCH  22  23
ATOM     23  O   UNL     1      11.415  16.121  44.179  0.00  0.00    +0.000 OA
ATOM     24  H   UNL     1      11.520  16.854  43.552  0.00  0.00    +0.000 HD
ENDBRANCH  22  23
ENDBRANCH   3  22
TORSDOF 8
ENDMDL
MODEL 14
REMARK VINA RESULT:    -4.903      2.584      4.124
REMARK INTER + INTRA:          -7.065
REMARK INTER:                  -6.545
REMARK INTRA:                  -0.520
REMARK UNBOUND:                -0.586
REMARK  Name = opt64.pdb
REMARK  8 active torsions:
REMARK  status: ('A' for Active; 'I' for Inactive)
REMARK    1  A    between atoms: C_2  and  O_4
REMARK    2  A    between atoms: C_3  and  C_7
REMARK    3  A    between atoms: O_4  and  C_8
REMARK    4  A    between atoms: C_5  and  O_9
REMARK    5  A    between atoms: C_6  and  O_11
REMARK    6  A    between atoms: C_7  and  O_12
REMARK    7  A    between atoms: C_10  and  O_15
REMARK    8  A    between atoms: C_18  and  O_19
REMARK                            x       y       z     vdW  Elec       q    Type
REMARK                         _______ _______ _______ _____ _____    ______ ____
ROOT
ATOM      1  O   UNL     1      13.280  14.259  43.587  0.00  0.00    +0.000 OA
ATOM      2  C   UNL     1      14.680  14.119  43.262  0.00  0.00    +0.000 C 
ATOM      3  C   UNL     1      12.478  13.140  43.151  0.00  0.00    +0.000 C 
ATOM      4  C   UNL     1      15.243  12.931  44.080  0.00  0.00    +0.000 C 
ATOM      5  C   UNL     1      12.882  11.936  44.024  0.00  0.00    +0.000 C 
ATOM      6  C   UNL     1      14.393  11.661  43.808  0.00  0.00    +0.000 C 
ENDROOT
BRANCH   4   7
ATOM      7  O   UNL     1      15.229  13.232  45.484  0.00  0.00    +0.000 OA
ATOM      8  H   UNL     1      16.061  13.693  45.703  0.00  0.00    +0.000 HD
ENDBRANCH   4   7
BRANCH   5   9
ATOM      9  O   UNL     1      12.110  10.790  43.661  0.00  0.00    +0.000 OA
ATOM     10  H   UNL     1      12.713  10.119  43.299  0.00  0.00    +0.000 HD
ENDBRANCH   5   9
BRANCH   6  11
ATOM     11  O   UNL     1      14.825  10.627  44.687  0.00  0.00    +0.000 OA
ATOM     12  H   UNL     1      15.492  11.052  45.258  0.00  0.00    +0.000 HD
ENDBRANCH   6  11
BRANCH   2  13
ATOM     13  O   UNL     1      15.399  15.332  43.576  0.00  0.00    +0.000 OA
BRANCH  13  14
ATOM     14  C   UNL     1      14.762  16.532  43.853  0.00  0.00    +0.000 A 
ATOM     15  C   UNL     1      14.474  16.958  45.157  0.00  0.00    +0.000 A 
ATOM     16  C   UNL     1      14.411  17.346  42.777  0.00  0.00    +0.000 A 
ATOM     17  C   UNL     1      13.857  18.184  45.374  0.00  0.00    +0.000 A 
ATOM     18  C   UNL     1      13.779  18.570  42.994  0.00  0.00    +0.000 A 
ATOM     19  C   UNL     1      13.510  18.991  44.296  0.00  0.00    +0.000 A 
BRANCH  19  20
ATOM     20  O   UNL     1      12.924  20.196  44.524  0.00  0.00    +0.000 OA
ATOM     21  H   UNL     1      12.022  20.043  44.863  0.00  0.00    +0.000 HD
ENDBRANCH  19  20
ENDBRANCH  13  14
ENDBRANCH   2  13
BRANCH   3  22
ATOM     22  C   UNL     1      10.999  13.536  43.276  0.00  0.00    +0.000 C 
BRANCH  22  23
ATOM     23  O   UNL     1      10.618  13.384  44.644  0.00  0.00    +0.000 OA
ATOM     24  H   UNL     1      10.791  14.222  45.101  0.00  0.00    +0.000 HD
ENDBRANCH  22  23
ENDBRANCH   3  22
TORSDOF 8
ENDMDL
MODEL 15
REMARK VINA RESULT:    -4.883      1.962      3.063
REMARK INTER + INTRA:          -7.039
REMARK INTER:                  -6.496
REMARK INTRA:                  -0.543
REMARK UNBOUND:                -0.586
REMARK  Name = opt64.pdb
REMARK  8 active torsions:
REMARK  status: ('A' for Active; 'I' for Inactive)
REMARK    1  A    between atoms: C_2  and  O_4
REMARK    2  A    between atoms: C_3  and  C_7
REMARK    3  A    between atoms: O_4  and  C_8
REMARK    4  A    between atoms: C_5  and  O_9
REMARK    5  A    between atoms: C_6  and  O_11
REMARK    6  A    between atoms: C_7  and  O_12
REMARK    7  A    between atoms: C_10  and  O_15
REMARK    8  A    between atoms: C_18  and  O_19
REMARK                            x       y       z     vdW  Elec       q    Type
REMARK                         _______ _______ _______ _____ _____    ______ ____
ROOT
ATOM      1  O   UNL     1       9.566  12.530  42.724  0.00  0.00    +0.000 OA
ATOM      2  C   UNL     1      10.470  13.640  42.915  0.00  0.00    +0.000 C 
ATOM      3  C   UNL     1       8.282  12.725  43.354  0.00  0.00    +0.000 C 
ATOM      4  C   UNL     1       9.885  14.865  42.170  0.00  0.00    +0.000 C 
ATOM      5  C   UNL     1       7.568  13.847  42.574  0.00  0.00    +0.000 C 
ATOM      6  C   UNL     1       8.436  15.129  42.660  0.00  0.00    +0.000 C 
ENDROOT
BRANCH   4   7
ATOM      7  O   UNL     1       9.885  14.643  40.751  0.00  0.00    +0.000 OA
ATOM      8  H   UNL     1      10.270  13.762  40.583  0.00  0.00    +0.000 HD
ENDBRANCH   4   7
BRANCH   5   9
ATOM      9  O   UNL     1       6.274  14.082  43.133  0.00  0.00    +0.000 OA
ATOM     10  H   UNL     1       5.643  14.191  42.402  0.00  0.00    +0.000 HD
ENDBRANCH   5   9
BRANCH   6  11
ATOM     11  O   UNL     1       7.862  16.153  41.853  0.00  0.00    +0.000 OA
ATOM     12  H   UNL     1       6.983  15.809  41.606  0.00  0.00    +0.000 HD
ENDBRANCH   6  11
BRANCH   2  13
ATOM     13  O   UNL     1      11.783  13.320  42.403  0.00  0.00    +0.000 OA
BRANCH  13  14
ATOM     14  C   UNL     1      12.913  13.286  43.205  0.00  0.00    +0.000 A 
ATOM     15  C   UNL     1      14.211  13.164  42.688  0.00  0.00    +0.000 A 
ATOM     16  C   UNL     1      12.736  13.392  44.584  0.00  0.00    +0.000 A 
ATOM     17  C   UNL     1      15.308  13.163  43.540  0.00  0.00    +0.000 A 
ATOM     18  C   UNL     1      13.837  13.377  45.441  0.00  0.00    +0.000 A 
ATOM     19  C   UNL     1      15.124  13.270  44.915  0.00  0.00    +0.000 A 
BRANCH  19  20
ATOM     20  O   UNL     1      16.208  13.285  45.735  0.00  0.00    +0.000 OA
ATOM     21  H   UNL     1      16.759  14.057  45.507  0.00  0.00    +0.000 HD
ENDBRANCH  19  20
ENDBRANCH  13  14
ENDBRANCH   2  13
BRANCH   3  22
ATOM     22  C   UNL     1       7.536  11.383  43.344  0.00  0.00    +0.000 C 
BRANCH  22  23
ATOM     23  O   UNL     1       6.871  11.261  42.086  0.00  0.00    +0.000 OA
ATOM     24  H   UNL     1       6.851  12.136  41.667  0.00  0.00    +0.000 HD
ENDBRANCH  22  23
ENDBRANCH   3  22
TORSDOF 8
ENDMDL
MODEL 16
REMARK VINA RESULT:    -4.703      2.024      3.969
REMARK INTER + INTRA:          -6.801
REMARK INTER:                  -6.252
REMARK INTRA:                  -0.549
REMARK UNBOUND:                -0.586
REMARK  Name = opt64.pdb
REMARK  8 active torsions:
REMARK  status: ('A' for Active; 'I' for Inactive)
REMARK    1  A    between atoms: C_2  and  O_4
REMARK    2  A    between atoms: C_3  and  C_7
REMARK    3  A    between atoms: O_4  and  C_8
REMARK    4  A    between atoms: C_5  and  O_9
REMARK    5  A    between atoms: C_6  and  O_11
REMARK    6  A    between atoms: C_7  and  O_12
REMARK    7  A    between atoms: C_10  and  O_15
REMARK    8  A    between atoms: C_18  and  O_19
REMARK                            x       y       z     vdW  Elec       q    Type
REMARK                         _______ _______ _______ _____ _____    ______ ____
ROOT
ATOM      1  O   UNL     1      14.134  13.936  44.158  0.00  0.00    +0.000 OA
ATOM      2  C   UNL     1      13.222  14.909  44.711  0.00  0.00    +0.000 C 
ATOM      3  C   UNL     1      13.698  12.573  44.351  0.00  0.00    +0.000 C 
ATOM      4  C   UNL     1      11.900  14.835  43.908  0.00  0.00    +0.000 C 
ATOM      5  C   UNL     1      12.453  12.373  43.466  0.00  0.00    +0.000 C 
ATOM      6  C   UNL     1      11.364  13.379  43.920  0.00  0.00    +0.000 C 
ENDROOT
BRANCH   4   7
ATOM      7  O   UNL     1      12.105  15.266  42.553  0.00  0.00    +0.000 OA
ATOM      8  H   UNL     1      12.616  16.096  42.574  0.00  0.00    +0.000 HD
ENDBRANCH   4   7
BRANCH   5   9
ATOM      9  O   UNL     1      11.975  11.031  43.591  0.00  0.00    +0.000 OA
ATOM     10  H   UNL     1      11.441  10.973  44.400  0.00  0.00    +0.000 HD
ENDBRANCH   5   9
BRANCH   6  11
ATOM     11  O   UNL     1      10.241  13.300  43.048  0.00  0.00    +0.000 OA
ATOM     12  H   UNL     1      10.627  13.237  42.154  0.00  0.00    +0.000 HD
ENDBRANCH   6  11
BRANCH   2  13
ATOM     13  O   UNL     1      13.786  16.237  44.629  0.00  0.00    +0.000 OA
BRANCH  13  14
ATOM     14  C   UNL     1      15.136  16.468  44.408  0.00  0.00    +0.000 A 
ATOM     15  C   UNL     1      16.113  16.268  45.392  0.00  0.00    +0.000 A 
ATOM     16  C   UNL     1      15.522  16.906  43.142  0.00  0.00    +0.000 A 
ATOM     17  C   UNL     1      17.455  16.490  45.104  0.00  0.00    +0.000 A 
ATOM     18  C   UNL     1      16.866  17.142  42.857  0.00  0.00    +0.000 A 
ATOM     19  C   UNL     1      17.833  16.926  43.839  0.00  0.00    +0.000 A 
BRANCH  19  20
ATOM     20  O   UNL     1      19.150  17.122  43.566  0.00  0.00    +0.000 OA
ATOM     21  H   UNL     1      19.471  16.370  43.033  0.00  0.00    +0.000 HD
ENDBRANCH  19  20
ENDBRANCH  13  14
ENDBRANCH   2  13
BRANCH   3  22
ATOM     22  C   UNL     1      14.870  11.643  44.002  0.00  0.00    +0.000 C 
BRANCH  22  23
ATOM     23  O   UNL     1      14.634  10.384  44.633  0.00  0.00    +0.000 OA
ATOM     24  H   UNL     1      14.024   9.875  44.075  0.00  0.00    +0.000 HD
ENDBRANCH  22  23
ENDBRANCH   3  22
TORSDOF 8
ENDMDL
MODEL 17
REMARK VINA RESULT:    -4.554      2.214      3.309
REMARK INTER + INTRA:          -6.604
REMARK INTER:                  -6.047
REMARK INTRA:                  -0.557
REMARK UNBOUND:                -0.586
REMARK  Name = opt64.pdb
REMARK  8 active torsions:
REMARK  status: ('A' for Active; 'I' for Inactive)
REMARK    1  A    between atoms: C_2  and  O_4
REMARK    2  A    between atoms: C_3  and  C_7
REMARK    3  A    between atoms: O_4  and  C_8
REMARK    4  A    between atoms: C_5  and  O_9
REMARK    5  A    between atoms: C_6  and  O_11
REMARK    6  A    between atoms: C_7  and  O_12
REMARK    7  A    between atoms: C_10  and  O_15
REMARK    8  A    between atoms: C_18  and  O_19
REMARK                            x       y       z     vdW  Elec       q    Type
REMARK                         _______ _______ _______ _____ _____    ______ ____
ROOT
ATOM      1  O   UNL     1       9.688  14.654  42.769  0.00  0.00    +0.000 OA
ATOM      2  C   UNL     1       9.870  13.274  43.149  0.00  0.00    +0.000 C 
ATOM      3  C   UNL     1       8.937  14.815  41.546  0.00  0.00    +0.000 C 
ATOM      4  C   UNL     1       8.480  12.687  43.499  0.00  0.00    +0.000 C 
ATOM      5  C   UNL     1       7.490  14.381  41.851  0.00  0.00    +0.000 C 
ATOM      6  C   UNL     1       7.510  12.899  42.306  0.00  0.00    +0.000 C 
ENDROOT
BRANCH   4   7
ATOM      7  O   UNL     1       7.947  13.316  44.675  0.00  0.00    +0.000 OA
ATOM      8  H   UNL     1       7.669  12.614  45.294  0.00  0.00    +0.000 HD
ENDBRANCH   4   7
BRANCH   5   9
ATOM      9  O   UNL     1       6.679  14.534  40.684  0.00  0.00    +0.000 OA
ATOM     10  H   UNL     1       5.963  13.879  40.724  0.00  0.00    +0.000 HD
ENDBRANCH   5   9
BRANCH   6  11
ATOM     11  O   UNL     1       6.202  12.501  42.706  0.00  0.00    +0.000 OA
ATOM     12  H   UNL     1       6.325  12.099  43.587  0.00  0.00    +0.000 HD
ENDBRANCH   6  11
BRANCH   2  13
ATOM     13  O   UNL     1      10.758  13.171  44.284  0.00  0.00    +0.000 OA
BRANCH  13  14
ATOM     14  C   UNL     1      12.138  13.237  44.165  0.00  0.00    +0.000 A 
ATOM     15  C   UNL     1      12.909  14.236  44.776  0.00  0.00    +0.000 A 
ATOM     16  C   UNL     1      12.774  12.250  43.413  0.00  0.00    +0.000 A 
ATOM     17  C   UNL     1      14.292  14.235  44.643  0.00  0.00    +0.000 A 
ATOM     18  C   UNL     1      14.161  12.256  43.269  0.00  0.00    +0.000 A 
ATOM     19  C   UNL     1      14.920  13.247  43.892  0.00  0.00    +0.000 A 
BRANCH  19  20
ATOM     20  O   UNL     1      16.274  13.248  43.786  0.00  0.00    +0.000 OA
ATOM     21  H   UNL     1      16.578  14.171  43.700  0.00  0.00    +0.000 HD
ENDBRANCH  19  20
ENDBRANCH  13  14
ENDBRANCH   2  13
BRANCH   3  22
ATOM     22  C   UNL     1       9.071  16.276  41.092  0.00  0.00    +0.000 C 
BRANCH  22  23
ATOM     23  O   UNL     1       8.831  16.322  39.685  0.00  0.00    +0.000 OA
ATOM     24  H   UNL     1       9.667  16.134  39.229  0.00  0.00    +0.000 HD
ENDBRANCH  22  23
ENDBRANCH   3  22
TORSDOF 8
ENDMDL
MODEL 18
REMARK VINA RESULT:    -4.496      2.439      3.395
REMARK INTER + INTRA:          -6.528
REMARK INTER:                  -5.984
REMARK INTRA:                  -0.543
REMARK UNBOUND:                -0.586
REMARK  Name = opt64.pdb
REMARK  8 active torsions:
REMARK  status: ('A' for Active; 'I' for Inactive)
REMARK    1  A    between atoms: C_2  and  O_4
REMARK    2  A    between atoms: C_3  and  C_7
REMARK    3  A    between atoms: O_4  and  C_8
REMARK    4  A    between atoms: C_5  and  O_9
REMARK    5  A    between atoms: C_6  and  O_11
REMARK    6  A    between atoms: C_7  and  O_12
REMARK    7  A    between atoms: C_10  and  O_15
REMARK    8  A    between atoms: C_18  and  O_19
REMARK                            x       y       z     vdW  Elec       q    Type
REMARK                         _______ _______ _______ _____ _____    ______ ____
ROOT
ATOM      1  O   UNL     1      14.056  14.859  43.795  0.00  0.00    +0.000 OA
ATOM      2  C   UNL     1      14.891  13.702  44.017  0.00  0.00    +0.000 C 
ATOM      3  C   UNL     1      13.280  14.778  42.580  0.00  0.00    +0.000 C 
ATOM      4  C   UNL     1      13.966  12.485  44.260  0.00  0.00    +0.000 C 
ATOM      5  C   UNL     1      12.231  13.670  42.794  0.00  0.00    +0.000 C 
ATOM      6  C   UNL     1      12.975  12.339  43.075  0.00  0.00    +0.000 C 
ENDROOT
BRANCH   4   7
ATOM      7  O   UNL     1      13.236  12.640  45.487  0.00  0.00    +0.000 OA
ATOM      8  H   UNL     1      12.817  13.521  45.479  0.00  0.00    +0.000 HD
ENDBRANCH   4   7
BRANCH   5   9
ATOM      9  O   UNL     1      11.408  13.546  41.632  0.00  0.00    +0.000 OA
ATOM     10  H   UNL     1      11.640  14.262  41.018  0.00  0.00    +0.000 HD
ENDBRANCH   5   9
BRANCH   6  11
ATOM     11  O   UNL     1      12.033  11.318  43.391  0.00  0.00    +0.000 OA
ATOM     12  H   UNL     1      12.508  10.727  44.005  0.00  0.00    +0.000 HD
ENDBRANCH   6  11
BRANCH   2  13
ATOM     13  O   UNL     1      15.757  13.911  45.155  0.00  0.00    +0.000 OA
BRANCH  13  14
ATOM     14  C   UNL     1      16.794  14.832  45.151  0.00  0.00    +0.000 A 
ATOM     15  C   UNL     1      16.675  16.114  45.705  0.00  0.00    +0.000 A 
ATOM     16  C   UNL     1      18.004  14.446  44.578  0.00  0.00    +0.000 A 
ATOM     17  C   UNL     1      17.758  16.985  45.695  0.00  0.00    +0.000 A 
ATOM     18  C   UNL     1      19.087  15.325  44.556  0.00  0.00    +0.000 A 
ATOM     19  C   UNL     1      18.964  16.593  45.123  0.00  0.00    +0.000 A 
BRANCH  19  20
ATOM     20  O   UNL     1      20.019  17.448  45.136  0.00  0.00    +0.000 OA
ATOM     21  H   UNL     1      20.832  16.935  45.302  0.00  0.00    +0.000 HD
ENDBRANCH  19  20
ENDBRANCH  13  14
ENDBRANCH   2  13
BRANCH   3  22
ATOM     22  C   UNL     1      12.681  16.164  42.303  0.00  0.00    +0.000 C 
BRANCH  22  23
ATOM     23  O   UNL     1      11.364  16.191  42.855  0.00  0.00    +0.000 OA
ATOM     24  H   UNL     1      10.960  15.319  42.719  0.00  0.00    +0.000 HD
ENDBRANCH  22  23
ENDBRANCH   3  22
TORSDOF 8
ENDMDL
