MODEL 1
REMARK VINA RESULT:    -7.045      0.000      0.000
REMARK INTER + INTRA:          -8.609
REMARK INTER:                  -8.280
REMARK INTRA:                  -0.328
REMARK UNBOUND:                -0.328
REMARK  Name = opt88.pdb
REMARK  5 active torsions:
REMARK  status: ('A' for Active; 'I' for Inactive)
REMARK    1  A    between atoms: C_6  and  O_10
REMARK    2  A    between atoms: C_7  and  C_12
REMARK    3  A    between atoms: C_13  and  O_16
REMARK    4  A    between atoms: C_17  and  O_19
REMARK    5  A    between atoms: C_20  and  O_21
REMARK                            x       y       z     vdW  Elec       q    Type
REMARK                         _______ _______ _______ _____ _____    ______ ____
ROOT
ATOM      1  O   UNL     1      16.472  14.071  46.096  0.00  0.00    +0.000 OA
ATOM      2  C   UNL     1      16.159  13.920  44.930  0.00  0.00    +0.000 A 
ATOM      3  C   UNL     1      17.065  14.102  43.788  0.00  0.00    +0.000 A 
ATOM      4  C   UNL     1      14.790  13.565  44.495  0.00  0.00    +0.000 A 
ATOM      5  C   UNL     1      16.484  13.920  42.552  0.00  0.00    +0.000 A 
ATOM      6  C   UNL     1      18.460  14.482  43.846  0.00  0.00    +0.000 A 
ATOM      7  C   UNL     1      14.455  13.423  43.425  0.00  0.00    +0.000 A 
ATOM      8  O   UNL     1      15.124  13.601  42.530  0.00  0.00    +0.000 OA
ATOM      9  C   UNL     1      17.272  14.110  41.351  0.00  0.00    +0.000 A 
ATOM     10  C   UNL     1      19.201  14.669  42.688  0.00  0.00    +0.000 A 
ATOM     11  C   UNL     1      18.618  14.483  41.441  0.00  0.00    +0.000 A 
ENDROOT
BRANCH   7  12
ATOM     12  C   UNL     1      13.003  13.085  43.123  0.00  0.00    +0.000 A 
ATOM     13  C   UNL     1      12.622  12.446  41.920  0.00  0.00    +0.000 A 
ATOM     14  C   UNL     1      11.992  13.374  44.063  0.00  0.00    +0.000 A 
ATOM     15  C   UNL     1      11.297  12.071  41.695  0.00  0.00    +0.000 A 
ATOM     16  C   UNL     1      10.669  13.001  43.825  0.00  0.00    +0.000 A 
ATOM     17  C   UNL     1      10.323  12.340  42.650  0.00  0.00    +0.000 A 
BRANCH  15  18
ATOM     18  O   UNL     1      10.934  11.423  40.544  0.00  0.00    +0.000 OA
ATOM     19  H   UNL     1       9.990  11.554  40.350  0.00  0.00    +0.000 HD
ENDBRANCH  15  18
BRANCH  17  20
ATOM     20  O   UNL     1       9.040  11.940  42.419  0.00  0.00    +0.000 OA
ATOM     21  H   UNL     1       8.967  11.006  42.715  0.00  0.00    +0.000 HD
ENDBRANCH  17  20
ENDBRANCH   7  12
BRANCH   6  22
ATOM     22  O   UNL     1      19.066  14.683  45.047  0.00  0.00    +0.000 OA
ATOM     23  H   UNL     1      19.285  15.632  45.097  0.00  0.00    +0.000 HD
ENDBRANCH   6  22
BRANCH  11  24
ATOM     24  O   UNL     1      19.400  14.678  40.339  0.00  0.00    +0.000 OA
ATOM     25  H   UNL     1      19.311  13.960  39.698  0.00  0.00    +0.000 HD
ENDBRANCH  11  24
TORSDOF 5
ENDMDL
MODEL 2
REMARK VINA RESULT:    -6.776      1.927      7.671
REMARK INTER + INTRA:          -8.293
REMARK INTER:                  -8.007
REMARK INTRA:                  -0.286
REMARK UNBOUND:                -0.328
REMARK  Name = opt88.pdb
REMARK  5 active torsions:
REMARK  status: ('A' for Active; 'I' for Inactive)
REMARK    1  A    between atoms: C_6  and  O_10
REMARK    2  A    between atoms: C_7  and  C_12
REMARK    3  A    between atoms: C_13  and  O_16
REMARK    4  A    between atoms: C_17  and  O_19
REMARK    5  A    between atoms: C_20  and  O_21
REMARK                            x       y       z     vdW  Elec       q    Type
REMARK                         _______ _______ _______ _____ _____    ______ ____
ROOT
ATOM      1  O   UNL     1      10.614  10.641  42.585  0.00  0.00    +0.000 OA
ATOM      2  C   UNL     1      10.898  11.754  42.985  0.00  0.00    +0.000 A 
ATOM      3  C   UNL     1       9.926  12.828  43.235  0.00  0.00    +0.000 A 
ATOM      4  C   UNL     1      12.286  12.198  43.239  0.00  0.00    +0.000 A 
ATOM      5  C   UNL     1      10.475  14.023  43.643  0.00  0.00    +0.000 A 
ATOM      6  C   UNL     1       8.492  12.752  43.057  0.00  0.00    +0.000 A 
ATOM      7  C   UNL     1      12.593  13.224  43.603  0.00  0.00    +0.000 A 
ATOM      8  O   UNL     1      11.866  14.077  43.759  0.00  0.00    +0.000 OA
ATOM      9  C   UNL     1       9.617  15.166  43.885  0.00  0.00    +0.000 A 
ATOM     10  C   UNL     1       7.681  13.855  43.283  0.00  0.00    +0.000 A 
ATOM     11  C   UNL     1       8.233  15.061  43.697  0.00  0.00    +0.000 A 
ENDROOT
BRANCH   7  12
ATOM     12  C   UNL     1      14.066  13.550  43.795  0.00  0.00    +0.000 A 
ATOM     13  C   UNL     1      14.677  13.512  45.071  0.00  0.00    +0.000 A 
ATOM     14  C   UNL     1      14.878  13.869  42.687  0.00  0.00    +0.000 A 
ATOM     15  C   UNL     1      16.046  13.736  45.218  0.00  0.00    +0.000 A 
ATOM     16  C   UNL     1      16.245  14.098  42.845  0.00  0.00    +0.000 A 
ATOM     17  C   UNL     1      16.831  14.020  44.106  0.00  0.00    +0.000 A 
BRANCH  15  18
ATOM     18  O   UNL     1      16.642  13.668  46.449  0.00  0.00    +0.000 OA
ATOM     19  H   UNL     1      16.869  12.750  46.679  0.00  0.00    +0.000 HD
ENDBRANCH  15  18
BRANCH  17  20
ATOM     20  O   UNL     1      18.171  14.208  44.272  0.00  0.00    +0.000 OA
ATOM     21  H   UNL     1      18.609  13.950  43.430  0.00  0.00    +0.000 HD
ENDBRANCH  17  20
ENDBRANCH   7  12
BRANCH   6  22
ATOM     22  O   UNL     1       7.914  11.593  42.643  0.00  0.00    +0.000 OA
ATOM     23  H   UNL     1       8.340  11.351  41.799  0.00  0.00    +0.000 HD
ENDBRANCH   6  22
BRANCH  11  24
ATOM     24  O   UNL     1       7.384  16.109  43.907  0.00  0.00    +0.000 OA
ATOM     25  H   UNL     1       7.858  16.942  44.036  0.00  0.00    +0.000 HD
ENDBRANCH  11  24
TORSDOF 5
ENDMDL
MODEL 3
REMARK VINA RESULT:    -6.467      3.015      8.439
REMARK INTER + INTRA:          -7.930
REMARK INTER:                  -7.617
REMARK INTRA:                  -0.313
REMARK UNBOUND:                -0.328
REMARK  Name = opt88.pdb
REMARK  5 active torsions:
REMARK  status: ('A' for Active; 'I' for Inactive)
REMARK    1  A    between atoms: C_6  and  O_10
REMARK    2  A    between atoms: C_7  and  C_12
REMARK    3  A    between atoms: C_13  and  O_16
REMARK    4  A    between atoms: C_17  and  O_19
REMARK    5  A    between atoms: C_20  and  O_21
REMARK                            x       y       z     vdW  Elec       q    Type
REMARK                         _______ _______ _______ _____ _____    ______ ____
ROOT
ATOM      1  O   UNL     1       8.979  15.388  40.724  0.00  0.00    +0.000 OA
ATOM      2  C   UNL     1       9.180  14.482  41.509  0.00  0.00    +0.000 A 
ATOM      3  C   UNL     1       8.173  13.493  41.924  0.00  0.00    +0.000 A 
ATOM      4  C   UNL     1      10.473  14.271  42.196  0.00  0.00    +0.000 A 
ATOM      5  C   UNL     1       8.609  12.580  42.858  0.00  0.00    +0.000 A 
ATOM      6  C   UNL     1       6.799  13.424  41.478  0.00  0.00    +0.000 A 
ATOM      7  C   UNL     1      10.699  13.447  42.937  0.00  0.00    +0.000 A 
ATOM      8  O   UNL     1       9.928  12.704  43.302  0.00  0.00    +0.000 OA
ATOM      9  C   UNL     1       7.693  11.580  43.369  0.00  0.00    +0.000 A 
ATOM     10  C   UNL     1       5.929  12.468  41.982  0.00  0.00    +0.000 A 
ATOM     11  C   UNL     1       6.367  11.544  42.922  0.00  0.00    +0.000 A 
ENDROOT
BRANCH   7  12
ATOM     12  C   UNL     1      12.071  13.369  43.588  0.00  0.00    +0.000 A 
ATOM     13  C   UNL     1      12.753  12.138  43.741  0.00  0.00    +0.000 A 
ATOM     14  C   UNL     1      12.721  14.540  44.030  0.00  0.00    +0.000 A 
ATOM     15  C   UNL     1      14.044  12.094  44.268  0.00  0.00    +0.000 A 
ATOM     16  C   UNL     1      14.009  14.484  44.561  0.00  0.00    +0.000 A 
ATOM     17  C   UNL     1      14.675  13.266  44.669  0.00  0.00    +0.000 A 
BRANCH  15  18
ATOM     18  O   UNL     1      14.716  10.906  44.386  0.00  0.00    +0.000 OA
ATOM     19  H   UNL     1      15.618  11.046  44.722  0.00  0.00    +0.000 HD
ENDBRANCH  15  18
BRANCH  17  20
ATOM     20  O   UNL     1      15.947  13.200  45.155  0.00  0.00    +0.000 OA
ATOM     21  H   UNL     1      16.318  12.330  44.888  0.00  0.00    +0.000 HD
ENDBRANCH  17  20
ENDBRANCH   7  12
BRANCH   6  22
ATOM     22  O   UNL     1       6.329  14.317  40.566  0.00  0.00    +0.000 OA
ATOM     23  H   UNL     1       6.731  15.179  40.782  0.00  0.00    +0.000 HD
ENDBRANCH   6  22
BRANCH  11  24
ATOM     24  O   UNL     1       5.465  10.625  43.376  0.00  0.00    +0.000 OA
ATOM     25  H   UNL     1       4.915  10.976  44.090  0.00  0.00    +0.000 HD
ENDBRANCH  11  24
TORSDOF 5
ENDMDL
MODEL 4
REMARK VINA RESULT:    -6.376      3.080      8.355
REMARK INTER + INTRA:          -7.823
REMARK INTER:                  -7.492
REMARK INTRA:                  -0.331
REMARK UNBOUND:                -0.328
REMARK  Name = opt88.pdb
REMARK  5 active torsions:
REMARK  status: ('A' for Active; 'I' for Inactive)
REMARK    1  A    between atoms: C_6  and  O_10
REMARK    2  A    between atoms: C_7  and  C_12
REMARK    3  A    between atoms: C_13  and  O_16
REMARK    4  A    between atoms: C_17  and  O_19
REMARK    5  A    between atoms: C_20  and  O_21
REMARK                            x       y       z     vdW  Elec       q    Type
REMARK                         _______ _______ _______ _____ _____    ______ ____
ROOT
ATOM      1  O   UNL     1       8.555  16.398  43.053  0.00  0.00    +0.000 OA
ATOM      2  C   UNL     1       8.917  15.252  43.241  0.00  0.00    +0.000 A 
ATOM      3  C   UNL     1       8.042  14.073  43.166  0.00  0.00    +0.000 A 
ATOM      4  C   UNL     1      10.301  14.887  43.615  0.00  0.00    +0.000 A 
ATOM      5  C   UNL     1       8.657  12.876  43.458  0.00  0.00    +0.000 A 
ATOM      6  C   UNL     1       6.628  14.068  42.860  0.00  0.00    +0.000 A 
ATOM      7  C   UNL     1      10.677  13.838  43.805  0.00  0.00    +0.000 A 
ATOM      8  O   UNL     1      10.011  12.923  43.796  0.00  0.00    +0.000 OA
ATOM      9  C   UNL     1       7.884  11.650  43.453  0.00  0.00    +0.000 A 
ATOM     10  C   UNL     1       5.897  12.888  42.867  0.00  0.00    +0.000 A 
ATOM     11  C   UNL     1       6.516  11.679  43.159  0.00  0.00    +0.000 A 
ENDROOT
BRANCH   7  12
ATOM     12  C   UNL     1      12.125  13.613  44.211  0.00  0.00    +0.000 A 
ATOM     13  C   UNL     1      12.747  12.348  44.081  0.00  0.00    +0.000 A 
ATOM     14  C   UNL     1      12.904  14.682  44.700  0.00  0.00    +0.000 A 
ATOM     15  C   UNL     1      14.099  12.179  44.383  0.00  0.00    +0.000 A 
ATOM     16  C   UNL     1      14.253  14.500  45.006  0.00  0.00    +0.000 A 
ATOM     17  C   UNL     1      14.853  13.255  44.836  0.00  0.00    +0.000 A 
BRANCH  15  18
ATOM     18  O   UNL     1      14.708  10.962  44.227  0.00  0.00    +0.000 OA
ATOM     19  H   UNL     1      15.332  10.975  43.481  0.00  0.00    +0.000 HD
ENDBRANCH  15  18
BRANCH  17  20
ATOM     20  O   UNL     1      16.178  13.071  45.098  0.00  0.00    +0.000 OA
ATOM     21  H   UNL     1      16.650  13.883  44.806  0.00  0.00    +0.000 HD
ENDBRANCH  17  20
ENDBRANCH   7  12
BRANCH   6  22
ATOM     22  O   UNL     1       5.983  15.231  42.578  0.00  0.00    +0.000 OA
ATOM     23  H   UNL     1       5.599  15.551  43.417  0.00  0.00    +0.000 HD
ENDBRANCH   6  22
BRANCH  11  24
ATOM     24  O   UNL     1       5.745  10.552  43.145  0.00  0.00    +0.000 OA
ATOM     25  H   UNL     1       5.982   9.957  42.420  0.00  0.00    +0.000 HD
ENDBRANCH  11  24
TORSDOF 5
ENDMDL
MODEL 5
REMARK VINA RESULT:    -6.258      3.465      4.396
REMARK INTER + INTRA:          -7.683
REMARK INTER:                  -7.349
REMARK INTRA:                  -0.335
REMARK UNBOUND:                -0.328
REMARK  Name = opt88.pdb
REMARK  5 active torsions:
REMARK  status: ('A' for Active; 'I' for Inactive)
REMARK    1  A    between atoms: C_6  and  O_10
REMARK    2  A    between atoms: C_7  and  C_12
REMARK    3  A    between atoms: C_13  and  O_16
REMARK    4  A    between atoms: C_17  and  O_19
REMARK    5  A    between atoms: C_20  and  O_21
REMARK                            x       y       z     vdW  Elec       q    Type
REMARK                         _______ _______ _______ _____ _____    ______ ____
ROOT
ATOM      1  O   UNL     1      13.541  18.687  44.914  0.00  0.00    +0.000 OA
ATOM      2  C   UNL     1      14.291  17.734  45.015  0.00  0.00    +0.000 A 
ATOM      3  C   UNL     1      15.705  17.818  45.409  0.00  0.00    +0.000 A 
ATOM      4  C   UNL     1      13.886  16.344  44.713  0.00  0.00    +0.000 A 
ATOM      5  C   UNL     1      16.376  16.616  45.416  0.00  0.00    +0.000 A 
ATOM      6  C   UNL     1      16.438  19.021  45.740  0.00  0.00    +0.000 A 
ATOM      7  C   UNL     1      14.551  15.433  44.787  0.00  0.00    +0.000 A 
ATOM      8  O   UNL     1      15.652  15.481  45.044  0.00  0.00    +0.000 OA
ATOM      9  C   UNL     1      17.786  16.580  45.752  0.00  0.00    +0.000 A 
ATOM     10  C   UNL     1      17.789  18.974  46.052  0.00  0.00    +0.000 A 
ATOM     11  C   UNL     1      18.468  17.762  46.062  0.00  0.00    +0.000 A 
ENDROOT
BRANCH   7  12
ATOM     12  C   UNL     1      14.005  14.063  44.416  0.00  0.00    +0.000 A 
ATOM     13  C   UNL     1      14.756  12.881  44.622  0.00  0.00    +0.000 A 
ATOM     14  C   UNL     1      12.706  13.932  43.884  0.00  0.00    +0.000 A 
ATOM     15  C   UNL     1      14.209  11.627  44.352  0.00  0.00    +0.000 A 
ATOM     16  C   UNL     1      12.170  12.673  43.610  0.00  0.00    +0.000 A 
ATOM     17  C   UNL     1      12.914  11.522  43.855  0.00  0.00    +0.000 A 
BRANCH  15  18
ATOM     18  O   UNL     1      14.924  10.482  44.581  0.00  0.00    +0.000 OA
ATOM     19  H   UNL     1      15.554  10.311  43.860  0.00  0.00    +0.000 HD
ENDBRANCH  15  18
BRANCH  17  20
ATOM     20  O   UNL     1      12.392  10.284  43.624  0.00  0.00    +0.000 OA
ATOM     21  H   UNL     1      11.926  10.005  44.443  0.00  0.00    +0.000 HD
ENDBRANCH  17  20
ENDBRANCH   7  12
BRANCH   6  22
ATOM     22  O   UNL     1      15.812  20.228  45.732  0.00  0.00    +0.000 OA
ATOM     23  H   UNL     1      15.520  20.388  44.815  0.00  0.00    +0.000 HD
ENDBRANCH   6  22
BRANCH  11  24
ATOM     24  O   UNL     1      19.795  17.781  46.381  0.00  0.00    +0.000 OA
ATOM     25  H   UNL     1      20.006  18.473  47.022  0.00  0.00    +0.000 HD
ENDBRANCH  11  24
TORSDOF 5
ENDMDL
MODEL 6
REMARK VINA RESULT:    -6.217      2.939      8.185
REMARK INTER + INTRA:          -7.636
REMARK INTER:                  -7.314
REMARK INTRA:                  -0.322
REMARK UNBOUND:                -0.328
REMARK  Name = opt88.pdb
REMARK  5 active torsions:
REMARK  status: ('A' for Active; 'I' for Inactive)
REMARK    1  A    between atoms: C_6  and  O_10
REMARK    2  A    between atoms: C_7  and  C_12
REMARK    3  A    between atoms: C_13  and  O_16
REMARK    4  A    between atoms: C_17  and  O_19
REMARK    5  A    between atoms: C_20  and  O_21
REMARK                            x       y       z     vdW  Elec       q    Type
REMARK                         _______ _______ _______ _____ _____    ______ ____
ROOT
ATOM      1  O   UNL     1       8.298  11.546  42.614  0.00  0.00    +0.000 OA
ATOM      2  C   UNL     1       8.836  12.536  43.072  0.00  0.00    +0.000 A 
ATOM      3  C   UNL     1       8.177  13.837  43.259  0.00  0.00    +0.000 A 
ATOM      4  C   UNL     1      10.259  12.578  43.473  0.00  0.00    +0.000 A 
ATOM      5  C   UNL     1       8.991  14.832  43.754  0.00  0.00    +0.000 A 
ATOM      6  C   UNL     1       6.803  14.161  42.940  0.00  0.00    +0.000 A 
ATOM      7  C   UNL     1      10.799  13.477  43.895  0.00  0.00    +0.000 A 
ATOM      8  O   UNL     1      10.323  14.498  44.005  0.00  0.00    +0.000 OA
ATOM      9  C   UNL     1       8.460  16.167  43.944  0.00  0.00    +0.000 A 
ATOM     10  C   UNL     1       6.310  15.446  43.119  0.00  0.00    +0.000 A 
ATOM     11  C   UNL     1       7.128  16.451  43.621  0.00  0.00    +0.000 A 
ENDROOT
BRANCH   7  12
ATOM     12  C   UNL     1      12.277  13.382  44.239  0.00  0.00    +0.000 A 
ATOM     13  C   UNL     1      12.983  12.158  44.160  0.00  0.00    +0.000 A 
ATOM     14  C   UNL     1      12.999  14.534  44.616  0.00  0.00    +0.000 A 
ATOM     15  C   UNL     1      14.356  12.104  44.401  0.00  0.00    +0.000 A 
ATOM     16  C   UNL     1      14.370  14.468  44.861  0.00  0.00    +0.000 A 
ATOM     17  C   UNL     1      15.051  13.259  44.743  0.00  0.00    +0.000 A 
BRANCH  15  18
ATOM     18  O   UNL     1      15.044  10.925  44.294  0.00  0.00    +0.000 OA
ATOM     19  H   UNL     1      14.437  10.165  44.268  0.00  0.00    +0.000 HD
ENDBRANCH  15  18
BRANCH  17  20
ATOM     20  O   UNL     1      16.397  13.186  44.947  0.00  0.00    +0.000 OA
ATOM     21  H   UNL     1      16.809  13.928  44.450  0.00  0.00    +0.000 HD
ENDBRANCH  17  20
ENDBRANCH   7  12
BRANCH   6  22
ATOM     22  O   UNL     1       5.974  13.209  42.438  0.00  0.00    +0.000 OA
ATOM     23  H   UNL     1       6.471  12.740  41.741  0.00  0.00    +0.000 HD
ENDBRANCH   6  22
BRANCH  11  24
ATOM     24  O   UNL     1       6.583  17.693  43.778  0.00  0.00    +0.000 OA
ATOM     25  H   UNL     1       6.087  17.770  44.604  0.00  0.00    +0.000 HD
ENDBRANCH  11  24
TORSDOF 5
ENDMDL
MODEL 7
REMARK VINA RESULT:    -6.186      2.614      4.317
REMARK INTER + INTRA:          -7.599
REMARK INTER:                  -7.313
REMARK INTRA:                  -0.286
REMARK UNBOUND:                -0.328
REMARK  Name = opt88.pdb
REMARK  5 active torsions:
REMARK  status: ('A' for Active; 'I' for Inactive)
REMARK    1  A    between atoms: C_6  and  O_10
REMARK    2  A    between atoms: C_7  and  C_12
REMARK    3  A    between atoms: C_13  and  O_16
REMARK    4  A    between atoms: C_17  and  O_19
REMARK    5  A    between atoms: C_20  and  O_21
REMARK                            x       y       z     vdW  Elec       q    Type
REMARK                         _______ _______ _______ _____ _____    ______ ____
ROOT
ATOM      1  O   UNL     1      13.120  16.361  41.816  0.00  0.00    +0.000 OA
ATOM      2  C   UNL     1      12.920  15.533  42.685  0.00  0.00    +0.000 A 
ATOM      3  C   UNL     1      13.945  15.019  43.604  0.00  0.00    +0.000 A 
ATOM      4  C   UNL     1      11.606  14.893  42.912  0.00  0.00    +0.000 A 
ATOM      5  C   UNL     1      13.504  14.053  44.481  0.00  0.00    +0.000 A 
ATOM      6  C   UNL     1      15.341  15.399  43.639  0.00  0.00    +0.000 A 
ATOM      7  C   UNL     1      11.379  14.116  43.701  0.00  0.00    +0.000 A 
ATOM      8  O   UNL     1      12.162  13.675  44.389  0.00  0.00    +0.000 OA
ATOM      9  C   UNL     1      14.435  13.445  45.411  0.00  0.00    +0.000 A 
ATOM     10  C   UNL     1      16.224  14.802  44.528  0.00  0.00    +0.000 A 
ATOM     11  C   UNL     1      15.781  13.831  45.416  0.00  0.00    +0.000 A 
ENDROOT
BRANCH   7  12
ATOM     12  C   UNL     1       9.983  13.522  43.802  0.00  0.00    +0.000 A 
ATOM     13  C   UNL     1       9.040  13.993  44.748  0.00  0.00    +0.000 A 
ATOM     14  C   UNL     1       9.576  12.499  42.921  0.00  0.00    +0.000 A 
ATOM     15  C   UNL     1       7.738  13.492  44.773  0.00  0.00    +0.000 A 
ATOM     16  C   UNL     1       8.274  12.000  42.959  0.00  0.00    +0.000 A 
ATOM     17  C   UNL     1       7.353  12.503  43.874  0.00  0.00    +0.000 A 
BRANCH  15  18
ATOM     18  O   UNL     1       6.817  13.970  45.666  0.00  0.00    +0.000 OA
ATOM     19  H   UNL     1       7.129  13.865  46.581  0.00  0.00    +0.000 HD
ENDBRANCH  15  18
BRANCH  17  20
ATOM     20  O   UNL     1       6.067  12.049  43.900  0.00  0.00    +0.000 OA
ATOM     21  H   UNL     1       6.080  11.116  43.591  0.00  0.00    +0.000 HD
ENDBRANCH  17  20
ENDBRANCH   7  12
BRANCH   6  22
ATOM     22  O   UNL     1      15.816  16.339  42.780  0.00  0.00    +0.000 OA
ATOM     23  H   UNL     1      16.280  17.006  43.321  0.00  0.00    +0.000 HD
ENDBRANCH   6  22
BRANCH  11  24
ATOM     24  O   UNL     1      16.696  13.285  46.268  0.00  0.00    +0.000 OA
ATOM     25  H   UNL     1      16.758  13.775  47.100  0.00  0.00    +0.000 HD
ENDBRANCH  11  24
TORSDOF 5
ENDMDL
MODEL 8
REMARK VINA RESULT:    -6.100      2.929      4.120
REMARK INTER + INTRA:          -7.498
REMARK INTER:                  -7.199
REMARK INTRA:                  -0.299
REMARK UNBOUND:                -0.328
REMARK  Name = opt88.pdb
REMARK  5 active torsions:
REMARK  status: ('A' for Active; 'I' for Inactive)
REMARK    1  A    between atoms: C_6  and  O_10
REMARK    2  A    between atoms: C_7  and  C_12
REMARK    3  A    between atoms: C_13  and  O_16
REMARK    4  A    between atoms: C_17  and  O_19
REMARK    5  A    between atoms: C_20  and  O_21
REMARK                            x       y       z     vdW  Elec       q    Type
REMARK                         _______ _______ _______ _____ _____    ______ ____
ROOT
ATOM      1  O   UNL     1      19.421  14.608  44.737  0.00  0.00    +0.000 OA
ATOM      2  C   UNL     1      18.301  15.069  44.851  0.00  0.00    +0.000 A 
ATOM      3  C   UNL     1      17.992  16.392  45.413  0.00  0.00    +0.000 A 
ATOM      4  C   UNL     1      17.076  14.334  44.469  0.00  0.00    +0.000 A 
ATOM      5  C   UNL     1      16.650  16.691  45.485  0.00  0.00    +0.000 A 
ATOM      6  C   UNL     1      18.944  17.358  45.917  0.00  0.00    +0.000 A 
ATOM      7  C   UNL     1      16.018  14.721  44.564  0.00  0.00    +0.000 A 
ATOM      8  O   UNL     1      15.756  15.717  45.034  0.00  0.00    +0.000 OA
ATOM      9  C   UNL     1      16.223  17.953  46.056  0.00  0.00    +0.000 A 
ATOM     10  C   UNL     1      18.522  18.559  46.469  0.00  0.00    +0.000 A 
ATOM     11  C   UNL     1      17.169  18.864  46.540  0.00  0.00    +0.000 A 
ENDROOT
BRANCH   7  12
ATOM     12  C   UNL     1      14.847  13.840  44.156  0.00  0.00    +0.000 A 
ATOM     13  C   UNL     1      14.784  12.473  44.516  0.00  0.00    +0.000 A 
ATOM     14  C   UNL     1      13.767  14.380  43.429  0.00  0.00    +0.000 A 
ATOM     15  C   UNL     1      13.666  11.700  44.202  0.00  0.00    +0.000 A 
ATOM     16  C   UNL     1      12.656  13.597  43.114  0.00  0.00    +0.000 A 
ATOM     17  C   UNL     1      12.599  12.263  43.510  0.00  0.00    +0.000 A 
BRANCH  15  18
ATOM     18  O   UNL     1      13.590  10.385  44.579  0.00  0.00    +0.000 OA
ATOM     19  H   UNL     1      13.121  10.289  45.425  0.00  0.00    +0.000 HD
ENDBRANCH  15  18
BRANCH  17  20
ATOM     20  O   UNL     1      11.506  11.495  43.239  0.00  0.00    +0.000 OA
ATOM     21  H   UNL     1      10.865  11.628  43.972  0.00  0.00    +0.000 HD
ENDBRANCH  17  20
ENDBRANCH   7  12
BRANCH   6  22
ATOM     22  O   UNL     1      20.277  17.093  45.874  0.00  0.00    +0.000 OA
ATOM     23  H   UNL     1      20.737  17.916  46.125  0.00  0.00    +0.000 HD
ENDBRANCH   6  22
BRANCH  11  24
ATOM     24  O   UNL     1      16.817  20.063  47.091  0.00  0.00    +0.000 OA
ATOM     25  H   UNL     1      17.425  20.772  46.838  0.00  0.00    +0.000 HD
ENDBRANCH  11  24
TORSDOF 5
ENDMDL
MODEL 9
REMARK VINA RESULT:    -6.030      2.181      2.718
REMARK INTER + INTRA:          -7.416
REMARK INTER:                  -7.111
REMARK INTRA:                  -0.305
REMARK UNBOUND:                -0.328
REMARK  Name = opt88.pdb
REMARK  5 active torsions:
REMARK  status: ('A' for Active; 'I' for Inactive)
REMARK    1  A    between atoms: C_6  and  O_10
REMARK    2  A    between atoms: C_7  and  C_12
REMARK    3  A    between atoms: C_13  and  O_16
REMARK    4  A    between atoms: C_17  and  O_19
REMARK    5  A    between atoms: C_20  and  O_21
REMARK                            x       y       z     vdW  Elec       q    Type
REMARK                         _______ _______ _______ _____ _____    ______ ____
ROOT
ATOM      1  O   UNL     1      14.052  18.157  45.010  0.00  0.00    +0.000 OA
ATOM      2  C   UNL     1      14.229  16.976  44.776  0.00  0.00    +0.000 A 
ATOM      3  C   UNL     1      15.532  16.297  44.829  0.00  0.00    +0.000 A 
ATOM      4  C   UNL     1      13.146  16.058  44.361  0.00  0.00    +0.000 A 
ATOM      5  C   UNL     1      15.504  14.964  44.483  0.00  0.00    +0.000 A 
ATOM      6  C   UNL     1      16.804  16.898  45.164  0.00  0.00    +0.000 A 
ATOM      7  C   UNL     1      13.268  14.958  44.127  0.00  0.00    +0.000 A 
ATOM      8  O   UNL     1      14.267  14.427  44.119  0.00  0.00    +0.000 OA
ATOM      9  C   UNL     1      16.735  14.199  44.463  0.00  0.00    +0.000 A 
ATOM     10  C   UNL     1      17.977  16.157  45.132  0.00  0.00    +0.000 A 
ATOM     11  C   UNL     1      17.952  14.812  44.787  0.00  0.00    +0.000 A 
ENDROOT
BRANCH   7  12
ATOM     12  C   UNL     1      12.066  14.139  43.683  0.00  0.00    +0.000 A 
ATOM     13  C   UNL     1      12.079  13.387  42.485  0.00  0.00    +0.000 A 
ATOM     14  C   UNL     1      10.906  14.082  44.483  0.00  0.00    +0.000 A 
ATOM     15  C   UNL     1      10.998  12.578  42.134  0.00  0.00    +0.000 A 
ATOM     16  C   UNL     1       9.827  13.275  44.120  0.00  0.00    +0.000 A 
ATOM     17  C   UNL     1       9.877  12.515  42.955  0.00  0.00    +0.000 A 
BRANCH  15  18
ATOM     18  O   UNL     1      11.024  11.824  40.990  0.00  0.00    +0.000 OA
ATOM     19  H   UNL     1      11.234  10.895  41.187  0.00  0.00    +0.000 HD
ENDBRANCH  15  18
BRANCH  17  20
ATOM     20  O   UNL     1       8.845  11.696  42.604  0.00  0.00    +0.000 OA
ATOM     21  H   UNL     1       8.910  10.888  43.160  0.00  0.00    +0.000 HD
ENDBRANCH  17  20
ENDBRANCH   7  12
BRANCH   6  22
ATOM     22  O   UNL     1      16.873  18.214  45.498  0.00  0.00    +0.000 OA
ATOM     23  H   UNL     1      17.594  18.603  44.967  0.00  0.00    +0.000 HD
ENDBRANCH   6  22
BRANCH  11  24
ATOM     24  O   UNL     1      19.138  14.136  44.778  0.00  0.00    +0.000 OA
ATOM     25  H   UNL     1      19.835  14.619  45.243  0.00  0.00    +0.000 HD
ENDBRANCH  11  24
TORSDOF 5
ENDMDL
MODEL 10
REMARK VINA RESULT:    -6.018      2.985      4.544
REMARK INTER + INTRA:          -7.402
REMARK INTER:                  -7.066
REMARK INTRA:                  -0.336
REMARK UNBOUND:                -0.328
REMARK  Name = opt88.pdb
REMARK  5 active torsions:
REMARK  status: ('A' for Active; 'I' for Inactive)
REMARK    1  A    between atoms: C_6  and  O_10
REMARK    2  A    between atoms: C_7  and  C_12
REMARK    3  A    between atoms: C_13  and  O_16
REMARK    4  A    between atoms: C_17  and  O_19
REMARK    5  A    between atoms: C_20  and  O_21
REMARK                            x       y       z     vdW  Elec       q    Type
REMARK                         _______ _______ _______ _____ _____    ______ ____
ROOT
ATOM      1  O   UNL     1      13.931  16.925  44.162  0.00  0.00    +0.000 OA
ATOM      2  C   UNL     1      13.262  15.909  44.167  0.00  0.00    +0.000 A 
ATOM      3  C   UNL     1      13.806  14.547  44.266  0.00  0.00    +0.000 A 
ATOM      4  C   UNL     1      11.789  15.904  44.031  0.00  0.00    +0.000 A 
ATOM      5  C   UNL     1      12.866  13.542  44.208  0.00  0.00    +0.000 A 
ATOM      6  C   UNL     1      15.202  14.182  44.376  0.00  0.00    +0.000 A 
ATOM      7  C   UNL     1      11.131  14.985  44.023  0.00  0.00    +0.000 A 
ATOM      8  O   UNL     1      11.532  13.927  44.053  0.00  0.00    +0.000 OA
ATOM      9  C   UNL     1      13.289  12.157  44.259  0.00  0.00    +0.000 A 
ATOM     10  C   UNL     1      15.595  12.852  44.415  0.00  0.00    +0.000 A 
ATOM     11  C   UNL     1      14.648  11.837  44.359  0.00  0.00    +0.000 A 
ENDROOT
BRANCH   7  12
ATOM     12  C   UNL     1       9.627  15.129  43.847  0.00  0.00    +0.000 A 
ATOM     13  C   UNL     1       8.779  14.002  43.733  0.00  0.00    +0.000 A 
ATOM     14  C   UNL     1       9.030  16.407  43.828  0.00  0.00    +0.000 A 
ATOM     15  C   UNL     1       7.394  14.152  43.653  0.00  0.00    +0.000 A 
ATOM     16  C   UNL     1       7.644  16.545  43.741  0.00  0.00    +0.000 A 
ATOM     17  C   UNL     1       6.827  15.421  43.666  0.00  0.00    +0.000 A 
BRANCH  15  18
ATOM     18  O   UNL     1       6.571  13.059  43.576  0.00  0.00    +0.000 OA
ATOM     19  H   UNL     1       7.049  12.243  43.803  0.00  0.00    +0.000 HD
ENDBRANCH  15  18
BRANCH  17  20
ATOM     20  O   UNL     1       5.469  15.540  43.614  0.00  0.00    +0.000 OA
ATOM     21  H   UNL     1       5.092  14.845  44.198  0.00  0.00    +0.000 HD
ENDBRANCH  17  20
ENDBRANCH   7  12
BRANCH   6  22
ATOM     22  O   UNL     1      16.160  15.146  44.423  0.00  0.00    +0.000 OA
ATOM     23  H   UNL     1      16.856  14.884  43.791  0.00  0.00    +0.000 HD
ENDBRANCH   6  22
BRANCH  11  24
ATOM     24  O   UNL     1      15.096  10.548  44.406  0.00  0.00    +0.000 OA
ATOM     25  H   UNL     1      15.972  10.452  44.006  0.00  0.00    +0.000 HD
ENDBRANCH  11  24
TORSDOF 5
ENDMDL
MODEL 11
REMARK VINA RESULT:    -6.010      1.895      7.326
REMARK INTER + INTRA:          -7.393
REMARK INTER:                  -7.105
REMARK INTRA:                  -0.288
REMARK UNBOUND:                -0.328
REMARK  Name = opt88.pdb
REMARK  5 active torsions:
REMARK  status: ('A' for Active; 'I' for Inactive)
REMARK    1  A    between atoms: C_6  and  O_10
REMARK    2  A    between atoms: C_7  and  C_12
REMARK    3  A    between atoms: C_13  and  O_16
REMARK    4  A    between atoms: C_17  and  O_19
REMARK    5  A    between atoms: C_20  and  O_21
REMARK                            x       y       z     vdW  Elec       q    Type
REMARK                         _______ _______ _______ _____ _____    ______ ____
ROOT
ATOM      1  O   UNL     1      11.312  11.406  41.563  0.00  0.00    +0.000 OA
ATOM      2  C   UNL     1      11.597  12.356  42.268  0.00  0.00    +0.000 A 
ATOM      3  C   UNL     1      10.651  13.395  42.698  0.00  0.00    +0.000 A 
ATOM      4  C   UNL     1      12.966  12.619  42.764  0.00  0.00    +0.000 A 
ATOM      5  C   UNL     1      11.203  14.402  43.459  0.00  0.00    +0.000 A 
ATOM      6  C   UNL     1       9.244  13.470  42.368  0.00  0.00    +0.000 A 
ATOM      7  C   UNL     1      13.275  13.492  43.413  0.00  0.00    +0.000 A 
ATOM      8  O   UNL     1      12.573  14.325  43.718  0.00  0.00    +0.000 OA
ATOM      9  C   UNL     1      10.373  15.502  43.909  0.00  0.00    +0.000 A 
ATOM     10  C   UNL     1       8.462  14.533  42.798  0.00  0.00    +0.000 A 
ATOM     11  C   UNL     1       9.016  15.548  43.568  0.00  0.00    +0.000 A 
ENDROOT
BRANCH   7  12
ATOM     12  C   UNL     1      14.730  13.651  43.826  0.00  0.00    +0.000 A 
ATOM     13  C   UNL     1      15.756  13.857  42.873  0.00  0.00    +0.000 A 
ATOM     14  C   UNL     1      15.092  13.633  45.189  0.00  0.00    +0.000 A 
ATOM     15  C   UNL     1      17.074  14.082  43.274  0.00  0.00    +0.000 A 
ATOM     16  C   UNL     1      16.414  13.852  45.579  0.00  0.00    +0.000 A 
ATOM     17  C   UNL     1      17.401  14.088  44.626  0.00  0.00    +0.000 A 
BRANCH  15  18
ATOM     18  O   UNL     1      18.061  14.313  42.353  0.00  0.00    +0.000 OA
ATOM     19  H   UNL     1      17.715  14.250  41.446  0.00  0.00    +0.000 HD
ENDBRANCH  15  18
BRANCH  17  20
ATOM     20  O   UNL     1      18.689  14.337  44.994  0.00  0.00    +0.000 OA
ATOM     21  H   UNL     1      18.682  14.567  45.950  0.00  0.00    +0.000 HD
ENDBRANCH  17  20
ENDBRANCH   7  12
BRANCH   6  22
ATOM     22  O   UNL     1       8.667  12.501  41.609  0.00  0.00    +0.000 OA
ATOM     23  H   UNL     1       7.857  12.889  41.225  0.00  0.00    +0.000 HD
ENDBRANCH   6  22
BRANCH  11  24
ATOM     24  O   UNL     1       8.195  16.564  43.964  0.00  0.00    +0.000 OA
ATOM     25  H   UNL     1       7.269  16.390  43.746  0.00  0.00    +0.000 HD
ENDBRANCH  11  24
TORSDOF 5
ENDMDL
MODEL 12
REMARK VINA RESULT:    -5.979      2.271      7.284
REMARK INTER + INTRA:          -7.356
REMARK INTER:                  -7.040
REMARK INTRA:                  -0.316
REMARK UNBOUND:                -0.328
REMARK  Name = opt88.pdb
REMARK  5 active torsions:
REMARK  status: ('A' for Active; 'I' for Inactive)
REMARK    1  A    between atoms: C_6  and  O_10
REMARK    2  A    between atoms: C_7  and  C_12
REMARK    3  A    between atoms: C_13  and  O_16
REMARK    4  A    between atoms: C_17  and  O_19
REMARK    5  A    between atoms: C_20  and  O_21
REMARK                            x       y       z     vdW  Elec       q    Type
REMARK                         _______ _______ _______ _____ _____    ______ ____
ROOT
ATOM      1  O   UNL     1      13.394  11.525  44.206  0.00  0.00    +0.000 OA
ATOM      2  C   UNL     1      13.511  12.729  44.339  0.00  0.00    +0.000 A 
ATOM      3  C   UNL     1      12.410  13.696  44.227  0.00  0.00    +0.000 A 
ATOM      4  C   UNL     1      14.807  13.396  44.595  0.00  0.00    +0.000 A 
ATOM      5  C   UNL     1      12.782  15.015  44.371  0.00  0.00    +0.000 A 
ATOM      6  C   UNL     1      11.023  13.395  43.949  0.00  0.00    +0.000 A 
ATOM      7  C   UNL     1      14.961  14.510  44.717  0.00  0.00    +0.000 A 
ATOM      8  O   UNL     1      14.136  15.274  44.591  0.00  0.00    +0.000 OA
ATOM      9  C   UNL     1      11.786  16.061  44.244  0.00  0.00    +0.000 A 
ATOM     10  C   UNL     1      10.081  14.406  43.821  0.00  0.00    +0.000 A 
ATOM     11  C   UNL     1      10.453  15.737  43.969  0.00  0.00    +0.000 A 
ENDROOT
BRANCH   7  12
ATOM     12  C   UNL     1      16.360  15.060  44.949  0.00  0.00    +0.000 A 
ATOM     13  C   UNL     1      17.517  14.307  44.640  0.00  0.00    +0.000 A 
ATOM     14  C   UNL     1      16.539  16.364  45.454  0.00  0.00    +0.000 A 
ATOM     15  C   UNL     1      18.791  14.857  44.784  0.00  0.00    +0.000 A 
ATOM     16  C   UNL     1      17.818  16.903  45.601  0.00  0.00    +0.000 A 
ATOM     17  C   UNL     1      18.941  16.156  45.256  0.00  0.00    +0.000 A 
BRANCH  15  18
ATOM     18  O   UNL     1      19.910  14.139  44.454  0.00  0.00    +0.000 OA
ATOM     19  H   UNL     1      19.849  13.792  43.547  0.00  0.00    +0.000 HD
ENDBRANCH  15  18
BRANCH  17  20
ATOM     20  O   UNL     1      20.195  16.681  45.362  0.00  0.00    +0.000 OA
ATOM     21  H   UNL     1      20.793  16.126  44.814  0.00  0.00    +0.000 HD
ENDBRANCH  17  20
ENDBRANCH   7  12
BRANCH   6  22
ATOM     22  O   UNL     1      10.621  12.106  43.788  0.00  0.00    +0.000 OA
ATOM     23  H   UNL     1      11.160  11.730  43.067  0.00  0.00    +0.000 HD
ENDBRANCH   6  22
BRANCH  11  24
ATOM     24  O   UNL     1       9.480  16.686  43.836  0.00  0.00    +0.000 OA
ATOM     25  H   UNL     1       8.909  16.733  44.614  0.00  0.00    +0.000 HD
ENDBRANCH  11  24
TORSDOF 5
ENDMDL
MODEL 13
REMARK VINA RESULT:    -5.874      1.991      7.173
REMARK INTER + INTRA:          -7.233
REMARK INTER:                  -6.948
REMARK INTRA:                  -0.285
REMARK UNBOUND:                -0.328
REMARK  Name = opt88.pdb
REMARK  5 active torsions:
REMARK  status: ('A' for Active; 'I' for Inactive)
REMARK    1  A    between atoms: C_6  and  O_10
REMARK    2  A    between atoms: C_7  and  C_12
REMARK    3  A    between atoms: C_13  and  O_16
REMARK    4  A    between atoms: C_17  and  O_19
REMARK    5  A    between atoms: C_20  and  O_21
REMARK                            x       y       z     vdW  Elec       q    Type
REMARK                         _______ _______ _______ _____ _____    ______ ____
ROOT
ATOM      1  O   UNL     1      11.572  11.187  43.367  0.00  0.00    +0.000 OA
ATOM      2  C   UNL     1      11.965  12.312  43.610  0.00  0.00    +0.000 A 
ATOM      3  C   UNL     1      11.103  13.499  43.703  0.00  0.00    +0.000 A 
ATOM      4  C   UNL     1      13.391  12.651  43.810  0.00  0.00    +0.000 A 
ATOM      5  C   UNL     1      11.769  14.681  43.945  0.00  0.00    +0.000 A 
ATOM      6  C   UNL     1       9.667  13.538  43.528  0.00  0.00    +0.000 A 
ATOM      7  C   UNL     1      13.799  13.682  44.029  0.00  0.00    +0.000 A 
ATOM      8  O   UNL     1      13.159  14.615  44.061  0.00  0.00    +0.000 OA
ATOM      9  C   UNL     1      11.026  15.923  44.020  0.00  0.00    +0.000 A 
ATOM     10  C   UNL     1       8.969  14.736  43.593  0.00  0.00    +0.000 A 
ATOM     11  C   UNL     1       9.638  15.928  43.841  0.00  0.00    +0.000 A 
ENDROOT
BRANCH   7  12
ATOM     12  C   UNL     1      15.298  13.888  44.184  0.00  0.00    +0.000 A 
ATOM     13  C   UNL     1      16.169  13.884  43.068  0.00  0.00    +0.000 A 
ATOM     14  C   UNL     1      15.859  14.126  45.456  0.00  0.00    +0.000 A 
ATOM     15  C   UNL     1      17.529  14.154  43.219  0.00  0.00    +0.000 A 
ATOM     16  C   UNL     1      17.222  14.388  45.597  0.00  0.00    +0.000 A 
ATOM     17  C   UNL     1      18.054  14.415  44.480  0.00  0.00    +0.000 A 
BRANCH  15  18
ATOM     18  O   UNL     1      18.366  14.182  42.135  0.00  0.00    +0.000 OA
ATOM     19  H   UNL     1      18.324  15.041  41.682  0.00  0.00    +0.000 HD
ENDBRANCH  15  18
BRANCH  17  20
ATOM     20  O   UNL     1      19.381  14.703  44.599  0.00  0.00    +0.000 OA
ATOM     21  H   UNL     1      19.505  15.634  44.312  0.00  0.00    +0.000 HD
ENDBRANCH  17  20
ENDBRANCH   7  12
BRANCH   6  22
ATOM     22  O   UNL     1       8.977  12.395  43.275  0.00  0.00    +0.000 OA
ATOM     23  H   UNL     1       8.463  12.191  44.079  0.00  0.00    +0.000 HD
ENDBRANCH   6  22
BRANCH  11  24
ATOM     24  O   UNL     1       8.895  17.072  43.897  0.00  0.00    +0.000 OA
ATOM     25  H   UNL     1       8.316  17.092  44.672  0.00  0.00    +0.000 HD
ENDBRANCH  11  24
TORSDOF 5
ENDMDL
MODEL 14
REMARK VINA RESULT:    -5.829      3.097      4.994
REMARK INTER + INTRA:          -7.180
REMARK INTER:                  -6.864
REMARK INTRA:                  -0.315
REMARK UNBOUND:                -0.328
REMARK  Name = opt88.pdb
REMARK  5 active torsions:
REMARK  status: ('A' for Active; 'I' for Inactive)
REMARK    1  A    between atoms: C_6  and  O_10
REMARK    2  A    between atoms: C_7  and  C_12
REMARK    3  A    between atoms: C_13  and  O_16
REMARK    4  A    between atoms: C_17  and  O_19
REMARK    5  A    between atoms: C_20  and  O_21
REMARK                            x       y       z     vdW  Elec       q    Type
REMARK                         _______ _______ _______ _____ _____    ______ ____
ROOT
ATOM      1  O   UNL     1      11.841  10.999  43.422  0.00  0.00    +0.000 OA
ATOM      2  C   UNL     1      11.974  12.182  43.673  0.00  0.00    +0.000 A 
ATOM      3  C   UNL     1      13.219  12.804  44.148  0.00  0.00    +0.000 A 
ATOM      4  C   UNL     1      10.873  13.165  43.570  0.00  0.00    +0.000 A 
ATOM      5  C   UNL     1      13.129  14.153  44.410  0.00  0.00    +0.000 A 
ATOM      6  C   UNL     1      14.478  12.134  44.394  0.00  0.00    +0.000 A 
ATOM      7  C   UNL     1      10.952  14.269  43.800  0.00  0.00    +0.000 A 
ATOM      8  O   UNL     1      11.886  14.759  44.208  0.00  0.00    +0.000 OA
ATOM      9  C   UNL     1      14.283  14.866  44.919  0.00  0.00    +0.000 A 
ATOM     10  C   UNL     1      15.573  12.827  44.890  0.00  0.00    +0.000 A 
ATOM     11  C   UNL     1      15.486  14.188  45.152  0.00  0.00    +0.000 A 
ENDROOT
BRANCH   7  12
ATOM     12  C   UNL     1       9.725  15.159  43.676  0.00  0.00    +0.000 A 
ATOM     13  C   UNL     1       8.413  14.627  43.708  0.00  0.00    +0.000 A 
ATOM     14  C   UNL     1       9.865  16.557  43.558  0.00  0.00    +0.000 A 
ATOM     15  C   UNL     1       7.298  15.465  43.674  0.00  0.00    +0.000 A 
ATOM     16  C   UNL     1       8.743  17.386  43.518  0.00  0.00    +0.000 A 
ATOM     17  C   UNL     1       7.463  16.843  43.588  0.00  0.00    +0.000 A 
BRANCH  15  18
ATOM     18  O   UNL     1       6.030  14.952  43.738  0.00  0.00    +0.000 OA
ATOM     19  H   UNL     1       5.451  15.516  44.279  0.00  0.00    +0.000 HD
ENDBRANCH  15  18
BRANCH  17  20
ATOM     20  O   UNL     1       6.359  17.643  43.583  0.00  0.00    +0.000 OA
ATOM     21  H   UNL     1       5.660  17.180  44.096  0.00  0.00    +0.000 HD
ENDBRANCH  17  20
ENDBRANCH   7  12
BRANCH   6  22
ATOM     22  O   UNL     1      14.601  10.801  44.159  0.00  0.00    +0.000 OA
ATOM     23  H   UNL     1      15.300  10.696  43.485  0.00  0.00    +0.000 HD
ENDBRANCH   6  22
BRANCH  11  24
ATOM     24  O   UNL     1      16.599  14.814  45.635  0.00  0.00    +0.000 OA
ATOM     25  H   UNL     1      17.369  14.229  45.646  0.00  0.00    +0.000 HD
ENDBRANCH  11  24
TORSDOF 5
ENDMDL
MODEL 15
REMARK VINA RESULT:    -5.813      2.738      4.197
REMARK INTER + INTRA:          -7.161
REMARK INTER:                  -6.867
REMARK INTRA:                  -0.294
REMARK UNBOUND:                -0.328
REMARK  Name = opt88.pdb
REMARK  5 active torsions:
REMARK  status: ('A' for Active; 'I' for Inactive)
REMARK    1  A    between atoms: C_6  and  O_10
REMARK    2  A    between atoms: C_7  and  C_12
REMARK    3  A    between atoms: C_13  and  O_16
REMARK    4  A    between atoms: C_17  and  O_19
REMARK    5  A    between atoms: C_20  and  O_21
REMARK                            x       y       z     vdW  Elec       q    Type
REMARK                         _______ _______ _______ _____ _____    ______ ____
ROOT
ATOM      1  O   UNL     1      13.941  11.692  43.599  0.00  0.00    +0.000 OA
ATOM      2  C   UNL     1      13.235  12.671  43.750  0.00  0.00    +0.000 A 
ATOM      3  C   UNL     1      13.725  14.013  44.096  0.00  0.00    +0.000 A 
ATOM      4  C   UNL     1      11.759  12.635  43.643  0.00  0.00    +0.000 A 
ATOM      5  C   UNL     1      12.742  14.964  44.261  0.00  0.00    +0.000 A 
ATOM      6  C   UNL     1      15.103  14.399  44.311  0.00  0.00    +0.000 A 
ATOM      7  C   UNL     1      11.067  13.518  43.783  0.00  0.00    +0.000 A 
ATOM      8  O   UNL     1      11.419  14.547  44.093  0.00  0.00    +0.000 OA
ATOM      9  C   UNL     1      13.104  16.316  44.639  0.00  0.00    +0.000 A 
ATOM     10  C   UNL     1      15.435  15.694  44.682  0.00  0.00    +0.000 A 
ATOM     11  C   UNL     1      14.446  16.656  44.845  0.00  0.00    +0.000 A 
ENDROOT
BRANCH   7  12
ATOM     12  C   UNL     1       9.562  13.327  43.671  0.00  0.00    +0.000 A 
ATOM     13  C   UNL     1       8.965  12.794  42.503  0.00  0.00    +0.000 A 
ATOM     14  C   UNL     1       8.718  13.647  44.754  0.00  0.00    +0.000 A 
ATOM     15  C   UNL     1       7.592  12.550  42.447  0.00  0.00    +0.000 A 
ATOM     16  C   UNL     1       7.346  13.406  44.685  0.00  0.00    +0.000 A 
ATOM     17  C   UNL     1       6.785  12.848  43.539  0.00  0.00    +0.000 A 
BRANCH  15  18
ATOM     18  O   UNL     1       7.019  12.005  41.329  0.00  0.00    +0.000 OA
ATOM     19  H   UNL     1       6.300  11.395  41.565  0.00  0.00    +0.000 HD
ENDBRANCH  15  18
BRANCH  17  20
ATOM     20  O   UNL     1       5.451  12.575  43.470  0.00  0.00    +0.000 OA
ATOM     21  H   UNL     1       5.349  11.598  43.500  0.00  0.00    +0.000 HD
ENDBRANCH  17  20
ENDBRANCH   7  12
BRANCH   6  22
ATOM     22  O   UNL     1      16.099  13.485  44.171  0.00  0.00    +0.000 OA
ATOM     23  H   UNL     1      15.740  12.628  44.469  0.00  0.00    +0.000 HD
ENDBRANCH   6  22
BRANCH  11  24
ATOM     24  O   UNL     1      14.837  17.913  45.207  0.00  0.00    +0.000 OA
ATOM     25  H   UNL     1      14.295  18.596  44.789  0.00  0.00    +0.000 HD
ENDBRANCH  11  24
TORSDOF 5
ENDMDL
MODEL 16
REMARK VINA RESULT:    -5.754      2.930      7.925
REMARK INTER + INTRA:          -7.092
REMARK INTER:                  -6.771
REMARK INTRA:                  -0.321
REMARK UNBOUND:                -0.328
REMARK  Name = opt88.pdb
REMARK  5 active torsions:
REMARK  status: ('A' for Active; 'I' for Inactive)
REMARK    1  A    between atoms: C_6  and  O_10
REMARK    2  A    between atoms: C_7  and  C_12
REMARK    3  A    between atoms: C_13  and  O_16
REMARK    4  A    between atoms: C_17  and  O_19
REMARK    5  A    between atoms: C_20  and  O_21
REMARK                            x       y       z     vdW  Elec       q    Type
REMARK                         _______ _______ _______ _____ _____    ______ ____
ROOT
ATOM      1  O   UNL     1       9.504  17.190  43.638  0.00  0.00    +0.000 OA
ATOM      2  C   UNL     1       9.986  16.074  43.670  0.00  0.00    +0.000 A 
ATOM      3  C   UNL     1       9.241  14.832  43.420  0.00  0.00    +0.000 A 
ATOM      4  C   UNL     1      11.401  15.808  44.010  0.00  0.00    +0.000 A 
ATOM      5  C   UNL     1       9.980  13.677  43.552  0.00  0.00    +0.000 A 
ATOM      6  C   UNL     1       7.836  14.720  43.096  0.00  0.00    +0.000 A 
ATOM      7  C   UNL     1      11.887  14.788  44.058  0.00  0.00    +0.000 A 
ATOM      8  O   UNL     1      11.322  13.818  43.912  0.00  0.00    +0.000 OA
ATOM      9  C   UNL     1       9.343  12.389  43.365  0.00  0.00    +0.000 A 
ATOM     10  C   UNL     1       7.235  13.480  42.928  0.00  0.00    +0.000 A 
ATOM     11  C   UNL     1       7.979  12.314  43.058  0.00  0.00    +0.000 A 
ENDROOT
BRANCH   7  12
ATOM     12  C   UNL     1      13.351  14.663  44.449  0.00  0.00    +0.000 A 
ATOM     13  C   UNL     1      14.205  15.790  44.507  0.00  0.00    +0.000 A 
ATOM     14  C   UNL     1      13.891  13.410  44.803  0.00  0.00    +0.000 A 
ATOM     15  C   UNL     1      15.524  15.669  44.945  0.00  0.00    +0.000 A 
ATOM     16  C   UNL     1      15.214  13.298  45.233  0.00  0.00    +0.000 A 
ATOM     17  C   UNL     1      16.025  14.427  45.316  0.00  0.00    +0.000 A 
BRANCH  15  18
ATOM     18  O   UNL     1      16.341  16.765  45.031  0.00  0.00    +0.000 OA
ATOM     19  H   UNL     1      17.162  16.631  44.528  0.00  0.00    +0.000 HD
ENDBRANCH  15  18
BRANCH  17  20
ATOM     20  O   UNL     1      17.309  14.338  45.767  0.00  0.00    +0.000 OA
ATOM     21  H   UNL     1      17.889  14.731  45.078  0.00  0.00    +0.000 HD
ENDBRANCH  17  20
ENDBRANCH   7  12
BRANCH   6  22
ATOM     22  O   UNL     1       7.071  15.837  42.969  0.00  0.00    +0.000 OA
ATOM     23  H   UNL     1       7.270  16.404  43.739  0.00  0.00    +0.000 HD
ENDBRANCH   6  22
BRANCH  11  24
ATOM     24  O   UNL     1       7.332  11.125  42.877  0.00  0.00    +0.000 OA
ATOM     25  H   UNL     1       6.566  11.213  42.293  0.00  0.00    +0.000 HD
ENDBRANCH  11  24
TORSDOF 5
ENDMDL
MODEL 17
REMARK VINA RESULT:    -5.647      3.008      4.704
REMARK INTER + INTRA:          -6.966
REMARK INTER:                  -6.638
REMARK INTRA:                  -0.328
REMARK UNBOUND:                -0.328
REMARK  Name = opt88.pdb
REMARK  5 active torsions:
REMARK  status: ('A' for Active; 'I' for Inactive)
REMARK    1  A    between atoms: C_6  and  O_10
REMARK    2  A    between atoms: C_7  and  C_12
REMARK    3  A    between atoms: C_13  and  O_16
REMARK    4  A    between atoms: C_17  and  O_19
REMARK    5  A    between atoms: C_20  and  O_21
REMARK                            x       y       z     vdW  Elec       q    Type
REMARK                         _______ _______ _______ _____ _____    ______ ____
ROOT
ATOM      1  O   UNL     1      12.324  10.485  43.608  0.00  0.00    +0.000 OA
ATOM      2  C   UNL     1      12.173  11.680  43.441  0.00  0.00    +0.000 A 
ATOM      3  C   UNL     1      13.136  12.712  43.851  0.00  0.00    +0.000 A 
ATOM      4  C   UNL     1      10.961  12.269  42.829  0.00  0.00    +0.000 A 
ATOM      5  C   UNL     1      12.738  14.007  43.602  0.00  0.00    +0.000 A 
ATOM      6  C   UNL     1      14.406  12.494  44.508  0.00  0.00    +0.000 A 
ATOM      7  C   UNL     1      10.777  13.373  42.663  0.00  0.00    +0.000 A 
ATOM      8  O   UNL     1      11.485  14.185  43.011  0.00  0.00    +0.000 OA
ATOM      9  C   UNL     1      13.590  15.111  43.997  0.00  0.00    +0.000 A 
ATOM     10  C   UNL     1      15.209  13.560  44.890  0.00  0.00    +0.000 A 
ATOM     11  C   UNL     1      14.811  14.866  44.637  0.00  0.00    +0.000 A 
ENDROOT
BRANCH   7  12
ATOM     12  C   UNL     1       9.468  13.839  42.046  0.00  0.00    +0.000 A 
ATOM     13  C   UNL     1       9.362  15.080  41.375  0.00  0.00    +0.000 A 
ATOM     14  C   UNL     1       8.322  13.019  42.097  0.00  0.00    +0.000 A 
ATOM     15  C   UNL     1       8.175  15.456  40.744  0.00  0.00    +0.000 A 
ATOM     16  C   UNL     1       7.138  13.406  41.469  0.00  0.00    +0.000 A 
ATOM     17  C   UNL     1       7.068  14.616  40.784  0.00  0.00    +0.000 A 
BRANCH  15  18
ATOM     18  O   UNL     1       8.083  16.643  40.068  0.00  0.00    +0.000 OA
ATOM     19  H   UNL     1       7.174  16.802  39.761  0.00  0.00    +0.000 HD
ENDBRANCH  15  18
BRANCH  17  20
ATOM     20  O   UNL     1       5.928  14.993  40.137  0.00  0.00    +0.000 OA
ATOM     21  H   UNL     1       5.328  15.390  40.808  0.00  0.00    +0.000 HD
ENDBRANCH  17  20
ENDBRANCH   7  12
BRANCH   6  22
ATOM     22  O   UNL     1      14.827  11.230  44.782  0.00  0.00    +0.000 OA
ATOM     23  H   UNL     1      15.803  11.248  44.766  0.00  0.00    +0.000 HD
ENDBRANCH   6  22
BRANCH  11  24
ATOM     24  O   UNL     1      15.646  15.871  45.032  0.00  0.00    +0.000 OA
ATOM     25  H   UNL     1      16.332  15.558  45.638  0.00  0.00    +0.000 HD
ENDBRANCH  11  24
TORSDOF 5
ENDMDL
MODEL 18
REMARK VINA RESULT:    -5.617      2.834      4.495
REMARK INTER + INTRA:          -6.930
REMARK INTER:                  -6.625
REMARK INTRA:                  -0.305
REMARK UNBOUND:                -0.328
REMARK  Name = opt88.pdb
REMARK  5 active torsions:
REMARK  status: ('A' for Active; 'I' for Inactive)
REMARK    1  A    between atoms: C_6  and  O_10
REMARK    2  A    between atoms: C_7  and  C_12
REMARK    3  A    between atoms: C_13  and  O_16
REMARK    4  A    between atoms: C_17  and  O_19
REMARK    5  A    between atoms: C_20  and  O_21
REMARK                            x       y       z     vdW  Elec       q    Type
REMARK                         _______ _______ _______ _____ _____    ______ ____
ROOT
ATOM      1  O   UNL     1      14.012  11.672  43.611  0.00  0.00    +0.000 OA
ATOM      2  C   UNL     1      13.288  12.638  43.762  0.00  0.00    +0.000 A 
ATOM      3  C   UNL     1      13.754  13.986  44.118  0.00  0.00    +0.000 A 
ATOM      4  C   UNL     1      11.815  12.577  43.644  0.00  0.00    +0.000 A 
ATOM      5  C   UNL     1      12.754  14.920  44.280  0.00  0.00    +0.000 A 
ATOM      6  C   UNL     1      15.123  14.394  44.344  0.00  0.00    +0.000 A 
ATOM      7  C   UNL     1      11.106  13.448  43.784  0.00  0.00    +0.000 A 
ATOM      8  O   UNL     1      11.440  14.482  44.101  0.00  0.00    +0.000 OA
ATOM      9  C   UNL     1      13.090  16.275  44.667  0.00  0.00    +0.000 A 
ATOM     10  C   UNL     1      15.431  15.692  44.724  0.00  0.00    +0.000 A 
ATOM     11  C   UNL     1      14.425  16.636  44.885  0.00  0.00    +0.000 A 
ENDROOT
BRANCH   7  12
ATOM     12  C   UNL     1       9.606  13.232  43.659  0.00  0.00    +0.000 A 
ATOM     13  C   UNL     1       8.711  13.617  44.686  0.00  0.00    +0.000 A 
ATOM     14  C   UNL     1       9.060  12.667  42.489  0.00  0.00    +0.000 A 
ATOM     15  C   UNL     1       7.332  13.486  44.522  0.00  0.00    +0.000 A 
ATOM     16  C   UNL     1       7.680  12.533  42.337  0.00  0.00    +0.000 A 
ATOM     17  C   UNL     1       6.816  12.953  43.346  0.00  0.00    +0.000 A 
BRANCH  15  18
ATOM     18  O   UNL     1       6.464  13.888  45.502  0.00  0.00    +0.000 OA
ATOM     19  H   UNL     1       6.338  14.853  45.485  0.00  0.00    +0.000 HD
ENDBRANCH  15  18
BRANCH  17  20
ATOM     20  O   UNL     1       5.464  12.859  43.198  0.00  0.00    +0.000 OA
ATOM     21  H   UNL     1       5.056  13.171  44.037  0.00  0.00    +0.000 HD
ENDBRANCH  17  20
ENDBRANCH   7  12
BRANCH   6  22
ATOM     22  O   UNL     1      16.136  13.497  44.207  0.00  0.00    +0.000 OA
ATOM     23  H   UNL     1      16.716  13.605  44.984  0.00  0.00    +0.000 HD
ENDBRANCH   6  22
BRANCH  11  24
ATOM     24  O   UNL     1      14.792  17.898  45.255  0.00  0.00    +0.000 OA
ATOM     25  H   UNL     1      14.086  18.357  45.731  0.00  0.00    +0.000 HD
ENDBRANCH  11  24
TORSDOF 5
ENDMDL
MODEL 19
REMARK VINA RESULT:    -5.215      3.186      4.731
REMARK INTER + INTRA:          -6.458
REMARK INTER:                  -6.137
REMARK INTRA:                  -0.322
REMARK UNBOUND:                -0.328
REMARK  Name = opt88.pdb
REMARK  5 active torsions:
REMARK  status: ('A' for Active; 'I' for Inactive)
REMARK    1  A    between atoms: C_6  and  O_10
REMARK    2  A    between atoms: C_7  and  C_12
REMARK    3  A    between atoms: C_13  and  O_16
REMARK    4  A    between atoms: C_17  and  O_19
REMARK    5  A    between atoms: C_20  and  O_21
REMARK                            x       y       z     vdW  Elec       q    Type
REMARK                         _______ _______ _______ _____ _____    ______ ____
ROOT
ATOM      1  O   UNL     1      13.553  17.299  44.266  0.00  0.00    +0.000 OA
ATOM      2  C   UNL     1      12.994  16.219  44.238  0.00  0.00    +0.000 A 
ATOM      3  C   UNL     1      13.666  14.922  44.409  0.00  0.00    +0.000 A 
ATOM      4  C   UNL     1      11.545  16.059  43.984  0.00  0.00    +0.000 A 
ATOM      5  C   UNL     1      12.842  13.824  44.296  0.00  0.00    +0.000 A 
ATOM      6  C   UNL     1      15.078  14.707  44.638  0.00  0.00    +0.000 A 
ATOM      7  C   UNL     1      10.988  15.076  43.942  0.00  0.00    +0.000 A 
ATOM      8  O   UNL     1      11.492  14.066  44.027  0.00  0.00    +0.000 OA
ATOM      9  C   UNL     1      13.399  12.491  44.410  0.00  0.00    +0.000 A 
ATOM     10  C   UNL     1      15.601  13.425  44.736  0.00  0.00    +0.000 A 
ATOM     11  C   UNL     1      14.771  12.316  44.626  0.00  0.00    +0.000 A 
ENDROOT
BRANCH   7  12
ATOM     12  C   UNL     1       9.497  15.061  43.643  0.00  0.00    +0.000 A 
ATOM     13  C   UNL     1       8.744  16.256  43.553  0.00  0.00    +0.000 A 
ATOM     14  C   UNL     1       8.827  13.842  43.412  0.00  0.00    +0.000 A 
ATOM     15  C   UNL     1       7.395  16.229  43.199  0.00  0.00    +0.000 A 
ATOM     16  C   UNL     1       7.476  13.825  43.066  0.00  0.00    +0.000 A 
ATOM     17  C   UNL     1       6.763  15.016  42.947  0.00  0.00    +0.000 A 
BRANCH  15  18
ATOM     18  O   UNL     1       6.675  17.387  43.079  0.00  0.00    +0.000 OA
ATOM     19  H   UNL     1       5.903  17.383  43.670  0.00  0.00    +0.000 HD
ENDBRANCH  15  18
BRANCH  17  20
ATOM     20  O   UNL     1       5.451  15.017  42.576  0.00  0.00    +0.000 OA
ATOM     21  H   UNL     1       4.948  14.551  43.280  0.00  0.00    +0.000 HD
ENDBRANCH  17  20
ENDBRANCH   7  12
BRANCH   6  22
ATOM     22  O   UNL     1      15.924  15.766  44.742  0.00  0.00    +0.000 OA
ATOM     23  H   UNL     1      15.945  16.197  43.867  0.00  0.00    +0.000 HD
ENDBRANCH   6  22
BRANCH  11  24
ATOM     24  O   UNL     1      15.344  11.082  44.735  0.00  0.00    +0.000 OA
ATOM     25  H   UNL     1      16.272  11.086  44.463  0.00  0.00    +0.000 HD
ENDBRANCH  11  24
TORSDOF 5
ENDMDL
