MODEL 1
REMARK VINA RESULT:    -5.403      0.000      0.000
REMARK INTER + INTRA:          -6.324
REMARK INTER:                  -6.034
REMARK INTRA:                  -0.289
REMARK UNBOUND:                -0.289
REMARK  Name = opt21.pdb
REMARK  5 active torsions:
REMARK  status: ('A' for Active; 'I' for Inactive)
REMARK    1  A    between atoms: C_6  and  O_10
REMARK    2  A    between atoms: C_7  and  C_12
REMARK    3  A    between atoms: C_9  and  O_13
REMARK    4  A    between atoms: O_10  and  C_15
REMARK    5  A    between atoms: O_13  and  C_17
REMARK                            x       y       z     vdW  Elec       q    Type
REMARK                         _______ _______ _______ _____ _____    ______ ____
ROOT
ATOM      1  O   UNL     1      17.408  14.088  45.345  0.00  0.00    +0.000 OA
ATOM      2  C   UNL     1      16.545  14.938  45.231  0.00  0.00    +0.000 A 
ATOM      3  C   UNL     1      15.201  14.687  44.687  0.00  0.00    +0.000 A 
ATOM      4  C   UNL     1      16.784  16.334  45.593  0.00  0.00    +0.000 A 
ATOM      5  C   UNL     1      14.257  15.709  44.670  0.00  0.00    +0.000 A 
ATOM      6  C   UNL     1      14.805  13.393  44.165  0.00  0.00    +0.000 A 
ATOM      7  C   UNL     1      15.790  17.281  45.497  0.00  0.00    +0.000 A 
ATOM      8  O   UNL     1      14.476  16.984  45.182  0.00  0.00    +0.000 OA
ATOM      9  C   UNL     1      12.900  15.419  44.237  0.00  0.00    +0.000 A 
ATOM     10  C   UNL     1      13.406  13.061  44.213  0.00  0.00    +0.000 A 
ATOM     11  C   UNL     1      16.078  18.717  45.835  0.00  0.00    +0.000 C 
ATOM     12  C   UNL     1      12.412  14.063  44.369  0.00  0.00    +0.000 A 
ATOM     13  C   UNL     1      12.815  11.989  43.479  0.00  0.00    +0.000 A 
ATOM     14  O   UNL     1      11.242  13.606  43.803  0.00  0.00    +0.000 OA
ATOM     15  C   UNL     1      11.506  12.358  43.296  0.00  0.00    +0.000 A 
ENDROOT
BRANCH   6  16
ATOM     16  O   UNL     1      15.676  12.874  43.225  0.00  0.00    +0.000 OA
ATOM     17  C   UNL     1      15.803  13.518  41.936  0.00  0.00    +0.000 C 
ENDBRANCH   6  16
BRANCH   9  18
ATOM     18  O   UNL     1      11.778  16.189  43.974  0.00  0.00    +0.000 OA
ATOM     19  C   UNL     1      11.706  17.043  42.812  0.00  0.00    +0.000 C 
ENDBRANCH   9  18
TORSDOF 2
ENDMDL
MODEL 2
REMARK VINA RESULT:    -5.337      2.029      3.406
REMARK INTER + INTRA:          -6.250
REMARK INTER:                  -6.006
REMARK INTRA:                  -0.245
REMARK UNBOUND:                -0.289
REMARK  Name = opt21.pdb
REMARK  5 active torsions:
REMARK  status: ('A' for Active; 'I' for Inactive)
REMARK    1  A    between atoms: C_6  and  O_10
REMARK    2  A    between atoms: C_7  and  C_12
REMARK    3  A    between atoms: C_9  and  O_13
REMARK    4  A    between atoms: O_10  and  C_15
REMARK    5  A    between atoms: O_13  and  C_17
REMARK                            x       y       z     vdW  Elec       q    Type
REMARK                         _______ _______ _______ _____ _____    ______ ____
ROOT
ATOM      1  O   UNL     1      13.476  11.004  44.541  0.00  0.00    +0.000 OA
ATOM      2  C   UNL     1      13.686  12.198  44.437  0.00  0.00    +0.000 A 
ATOM      3  C   UNL     1      12.664  13.188  44.061  0.00  0.00    +0.000 A 
ATOM      4  C   UNL     1      15.016  12.770  44.640  0.00  0.00    +0.000 A 
ATOM      5  C   UNL     1      12.983  14.543  44.046  0.00  0.00    +0.000 A 
ATOM      6  C   UNL     1      11.309  12.809  43.707  0.00  0.00    +0.000 A 
ATOM      7  C   UNL     1      15.235  14.126  44.558  0.00  0.00    +0.000 A 
ATOM      8  O   UNL     1      14.223  15.058  44.410  0.00  0.00    +0.000 OA
ATOM      9  C   UNL     1      11.938  15.518  43.785  0.00  0.00    +0.000 A 
ATOM     10  C   UNL     1      10.272  13.780  43.931  0.00  0.00    +0.000 A 
ATOM     11  C   UNL     1      16.622  14.680  44.728  0.00  0.00    +0.000 C 
ATOM     12  C   UNL     1      10.571  15.159  44.094  0.00  0.00    +0.000 A 
ATOM     13  C   UNL     1       8.964  13.694  43.366  0.00  0.00    +0.000 A 
ATOM     14  O   UNL     1       9.473  15.890  43.697  0.00  0.00    +0.000 OA
ATOM     15  C   UNL     1       8.521  14.990  43.286  0.00  0.00    +0.000 A 
ENDROOT
BRANCH   6  16
ATOM     16  O   UNL     1      11.235  11.829  42.736  0.00  0.00    +0.000 OA
ATOM     17  C   UNL     1      11.693  12.116  41.394  0.00  0.00    +0.000 C 
ENDBRANCH   6  16
BRANCH   9  18
ATOM     18  O   UNL     1      11.917  16.887  43.567  0.00  0.00    +0.000 OA
ATOM     19  C   UNL     1      12.198  17.822  44.630  0.00  0.00    +0.000 C 
ENDBRANCH   9  18
TORSDOF 2
ENDMDL
MODEL 3
REMARK VINA RESULT:    -5.244      2.120      3.430
REMARK INTER + INTRA:          -6.146
REMARK INTER:                  -5.867
REMARK INTRA:                  -0.279
REMARK UNBOUND:                -0.289
REMARK  Name = opt21.pdb
REMARK  5 active torsions:
REMARK  status: ('A' for Active; 'I' for Inactive)
REMARK    1  A    between atoms: C_6  and  O_10
REMARK    2  A    between atoms: C_7  and  C_12
REMARK    3  A    between atoms: C_9  and  O_13
REMARK    4  A    between atoms: O_10  and  C_15
REMARK    5  A    between atoms: O_13  and  C_17
REMARK                            x       y       z     vdW  Elec       q    Type
REMARK                         _______ _______ _______ _____ _____    ______ ____
ROOT
ATOM      1  O   UNL     1      13.432  11.230  44.739  0.00  0.00    +0.000 OA
ATOM      2  C   UNL     1      13.853  12.349  44.517  0.00  0.00    +0.000 A 
ATOM      3  C   UNL     1      13.005  13.497  44.158  0.00  0.00    +0.000 A 
ATOM      4  C   UNL     1      15.282  12.657  44.545  0.00  0.00    +0.000 A 
ATOM      5  C   UNL     1      13.574  14.757  44.000  0.00  0.00    +0.000 A 
ATOM      6  C   UNL     1      11.573  13.373  43.966  0.00  0.00    +0.000 A 
ATOM      7  C   UNL     1      15.746  13.934  44.331  0.00  0.00    +0.000 A 
ATOM      8  O   UNL     1      14.922  15.037  44.202  0.00  0.00    +0.000 OA
ATOM      9  C   UNL     1      12.712  15.902  43.758  0.00  0.00    +0.000 A 
ATOM     10  C   UNL     1      10.771  14.543  44.205  0.00  0.00    +0.000 A 
ATOM     11  C   UNL     1      17.224  14.211  44.323  0.00  0.00    +0.000 C 
ATOM     12  C   UNL     1      11.343  15.842  44.223  0.00  0.00    +0.000 A 
ATOM     13  C   UNL     1       9.417  14.683  43.775  0.00  0.00    +0.000 A 
ATOM     14  O   UNL     1      10.369  16.751  43.873  0.00  0.00    +0.000 OA
ATOM     15  C   UNL     1       9.224  16.033  43.629  0.00  0.00    +0.000 A 
ENDROOT
BRANCH   6  16
ATOM     16  O   UNL     1      11.207  12.368  43.091  0.00  0.00    +0.000 OA
ATOM     17  C   UNL     1      11.603  12.450  41.702  0.00  0.00    +0.000 C 
ENDBRANCH   6  16
BRANCH   9  18
ATOM     18  O   UNL     1      12.930  17.231  43.431  0.00  0.00    +0.000 OA
ATOM     19  C   UNL     1      13.337  17.623  42.103  0.00  0.00    +0.000 C 
ENDBRANCH   9  18
TORSDOF 2
ENDMDL
MODEL 4
REMARK VINA RESULT:    -5.173      3.027      4.708
REMARK INTER + INTRA:          -6.067
REMARK INTER:                  -5.828
REMARK INTRA:                  -0.239
REMARK UNBOUND:                -0.289
REMARK  Name = opt21.pdb
REMARK  5 active torsions:
REMARK  status: ('A' for Active; 'I' for Inactive)
REMARK    1  A    between atoms: C_6  and  O_10
REMARK    2  A    between atoms: C_7  and  C_12
REMARK    3  A    between atoms: C_9  and  O_13
REMARK    4  A    between atoms: O_10  and  C_15
REMARK    5  A    between atoms: O_13  and  C_17
REMARK                            x       y       z     vdW  Elec       q    Type
REMARK                         _______ _______ _______ _____ _____    ______ ____
ROOT
ATOM      1  O   UNL     1      12.567  12.474  44.543  0.00  0.00    +0.000 OA
ATOM      2  C   UNL     1      11.999  13.538  44.382  0.00  0.00    +0.000 A 
ATOM      3  C   UNL     1      10.609  13.673  43.919  0.00  0.00    +0.000 A 
ATOM      4  C   UNL     1      12.677  14.816  44.597  0.00  0.00    +0.000 A 
ATOM      5  C   UNL     1      10.023  14.933  43.840  0.00  0.00    +0.000 A 
ATOM      6  C   UNL     1       9.802  12.528  43.542  0.00  0.00    +0.000 A 
ATOM      7  C   UNL     1      12.015  16.013  44.448  0.00  0.00    +0.000 A 
ATOM      8  O   UNL     1      10.655  16.114  44.216  0.00  0.00    +0.000 OA
ATOM      9  C   UNL     1       8.616  15.044  43.492  0.00  0.00    +0.000 A 
ATOM     10  C   UNL     1       8.376  12.651  43.678  0.00  0.00    +0.000 A 
ATOM     11  C   UNL     1      12.750  17.311  44.633  0.00  0.00    +0.000 C 
ATOM     12  C   UNL     1       7.748  13.922  43.775  0.00  0.00    +0.000 A 
ATOM     13  C   UNL     1       7.437  11.760  43.076  0.00  0.00    +0.000 A 
ATOM     14  O   UNL     1       6.459  13.806  43.303  0.00  0.00    +0.000 OA
ATOM     15  C   UNL     1       6.294  12.501  42.910  0.00  0.00    +0.000 A 
ENDROOT
BRANCH   6  16
ATOM     16  O   UNL     1      10.407  11.691  42.623  0.00  0.00    +0.000 OA
ATOM     17  C   UNL     1      10.828  12.219  41.344  0.00  0.00    +0.000 C 
ENDBRANCH   6  16
BRANCH   9  18
ATOM     18  O   UNL     1       7.767  16.100  43.200  0.00  0.00    +0.000 OA
ATOM     19  C   UNL     1       7.862  16.819  41.952  0.00  0.00    +0.000 C 
ENDBRANCH   9  18
TORSDOF 2
ENDMDL
MODEL 5
REMARK VINA RESULT:    -5.146      2.171      4.932
REMARK INTER + INTRA:          -6.037
REMARK INTER:                  -5.800
REMARK INTRA:                  -0.237
REMARK UNBOUND:                -0.289
REMARK  Name = opt21.pdb
REMARK  5 active torsions:
REMARK  status: ('A' for Active; 'I' for Inactive)
REMARK    1  A    between atoms: C_6  and  O_10
REMARK    2  A    between atoms: C_7  and  C_12
REMARK    3  A    between atoms: C_9  and  O_13
REMARK    4  A    between atoms: O_10  and  C_15
REMARK    5  A    between atoms: O_13  and  C_17
REMARK                            x       y       z     vdW  Elec       q    Type
REMARK                         _______ _______ _______ _____ _____    ______ ____
ROOT
ATOM      1  O   UNL     1      11.351  11.215  41.953  0.00  0.00    +0.000 OA
ATOM      2  C   UNL     1      11.130  12.169  42.675  0.00  0.00    +0.000 A 
ATOM      3  C   UNL     1      12.135  13.181  43.041  0.00  0.00    +0.000 A 
ATOM      4  C   UNL     1       9.824  12.382  43.297  0.00  0.00    +0.000 A 
ATOM      5  C   UNL     1      11.764  14.280  43.810  0.00  0.00    +0.000 A 
ATOM      6  C   UNL     1      13.520  13.087  42.620  0.00  0.00    +0.000 A 
ATOM      7  C   UNL     1       9.573  13.484  44.080  0.00  0.00    +0.000 A 
ATOM      8  O   UNL     1      10.465  14.529  44.242  0.00  0.00    +0.000 OA
ATOM      9  C   UNL     1      12.737  15.328  44.069  0.00  0.00    +0.000 A 
ATOM     10  C   UNL     1      14.256  14.315  42.495  0.00  0.00    +0.000 A 
ATOM     11  C   UNL     1       8.234  13.653  44.742  0.00  0.00    +0.000 C 
ATOM     12  C   UNL     1      13.819  15.509  43.126  0.00  0.00    +0.000 A 
ATOM     13  C   UNL     1      15.679  14.385  42.397  0.00  0.00    +0.000 A 
ATOM     14  O   UNL     1      14.918  16.306  43.358  0.00  0.00    +0.000 OA
ATOM     15  C   UNL     1      16.013  15.619  42.895  0.00  0.00    +0.000 A 
ENDROOT
BRANCH   6  16
ATOM     16  O   UNL     1      14.113  11.871  42.905  0.00  0.00    +0.000 OA
ATOM     17  C   UNL     1      14.301  11.472  44.282  0.00  0.00    +0.000 C 
ENDBRANCH   6  16
BRANCH   9  18
ATOM     18  O   UNL     1      12.759  16.456  44.874  0.00  0.00    +0.000 OA
ATOM     19  C   UNL     1      12.022  17.647  44.523  0.00  0.00    +0.000 C 
ENDBRANCH   9  18
TORSDOF 2
ENDMDL
MODEL 6
REMARK VINA RESULT:    -5.144      1.857      4.885
REMARK INTER + INTRA:          -6.034
REMARK INTER:                  -5.980
REMARK INTRA:                  -0.055
REMARK UNBOUND:                -0.289
REMARK  Name = opt21.pdb
REMARK  5 active torsions:
REMARK  status: ('A' for Active; 'I' for Inactive)
REMARK    1  A    between atoms: C_6  and  O_10
REMARK    2  A    between atoms: C_7  and  C_12
REMARK    3  A    between atoms: C_9  and  O_13
REMARK    4  A    between atoms: O_10  and  C_15
REMARK    5  A    between atoms: O_13  and  C_17
REMARK                            x       y       z     vdW  Elec       q    Type
REMARK                         _______ _______ _______ _____ _____    ______ ____
ROOT
ATOM      1  O   UNL     1      11.335  11.347  43.096  0.00  0.00    +0.000 OA
ATOM      2  C   UNL     1      11.002  12.459  43.459  0.00  0.00    +0.000 A 
ATOM      3  C   UNL     1      11.931  13.472  43.985  0.00  0.00    +0.000 A 
ATOM      4  C   UNL     1       9.604  12.890  43.446  0.00  0.00    +0.000 A 
ATOM      5  C   UNL     1      11.465  14.744  44.301  0.00  0.00    +0.000 A 
ATOM      6  C   UNL     1      13.342  13.200  44.185  0.00  0.00    +0.000 A 
ATOM      7  C   UNL     1       9.242  14.163  43.822  0.00  0.00    +0.000 A 
ATOM      8  O   UNL     1      10.151  15.164  44.114  0.00  0.00    +0.000 OA
ATOM      9  C   UNL     1      12.411  15.768  44.711  0.00  0.00    +0.000 A 
ATOM     10  C   UNL     1      14.245  14.317  44.121  0.00  0.00    +0.000 A 
ATOM     11  C   UNL     1       7.793  14.563  43.840  0.00  0.00    +0.000 C 
ATOM     12  C   UNL     1      13.783  15.652  44.267  0.00  0.00    +0.000 A 
ATOM     13  C   UNL     1      15.592  14.282  44.591  0.00  0.00    +0.000 A 
ATOM     14  O   UNL     1      14.819  16.419  44.755  0.00  0.00    +0.000 OA
ATOM     15  C   UNL     1      15.892  15.579  44.921  0.00  0.00    +0.000 A 
ENDROOT
BRANCH   6  16
ATOM     16  O   UNL     1      13.596  12.060  44.924  0.00  0.00    +0.000 OA
ATOM     17  C   UNL     1      14.360  10.982  44.334  0.00  0.00    +0.000 C 
ENDBRANCH   6  16
BRANCH   9  18
ATOM     18  O   UNL     1      12.294  17.056  45.210  0.00  0.00    +0.000 OA
ATOM     19  C   UNL     1      11.901  18.158  44.366  0.00  0.00    +0.000 C 
ENDBRANCH   9  18
TORSDOF 2
ENDMDL
MODEL 7
REMARK VINA RESULT:    -5.116      1.252      1.407
REMARK INTER + INTRA:          -6.004
REMARK INTER:                  -5.715
REMARK INTRA:                  -0.289
REMARK UNBOUND:                -0.289
REMARK  Name = opt21.pdb
REMARK  5 active torsions:
REMARK  status: ('A' for Active; 'I' for Inactive)
REMARK    1  A    between atoms: C_6  and  O_10
REMARK    2  A    between atoms: C_7  and  C_12
REMARK    3  A    between atoms: C_9  and  O_13
REMARK    4  A    between atoms: O_10  and  C_15
REMARK    5  A    between atoms: O_13  and  C_17
REMARK                            x       y       z     vdW  Elec       q    Type
REMARK                         _______ _______ _______ _____ _____    ______ ____
ROOT
ATOM      1  O   UNL     1      16.620  13.482  46.062  0.00  0.00    +0.000 OA
ATOM      2  C   UNL     1      16.268  14.569  45.644  0.00  0.00    +0.000 A 
ATOM      3  C   UNL     1      14.956  14.837  45.033  0.00  0.00    +0.000 A 
ATOM      4  C   UNL     1      17.156  15.731  45.670  0.00  0.00    +0.000 A 
ATOM      5  C   UNL     1      14.618  16.134  44.656  0.00  0.00    +0.000 A 
ATOM      6  C   UNL     1      13.976  13.791  44.810  0.00  0.00    +0.000 A 
ATOM      7  C   UNL     1      16.736  16.965  45.230  0.00  0.00    +0.000 A 
ATOM      8  O   UNL     1      15.434  17.243  44.854  0.00  0.00    +0.000 OA
ATOM      9  C   UNL     1      13.279  16.405  44.160  0.00  0.00    +0.000 A 
ATOM     10  C   UNL     1      12.592  14.179  44.783  0.00  0.00    +0.000 A 
ATOM     11  C   UNL     1      17.685  18.131  45.229  0.00  0.00    +0.000 C 
ATOM     12  C   UNL     1      12.204  15.529  44.571  0.00  0.00    +0.000 A 
ATOM     13  C   UNL     1      11.543  13.353  44.278  0.00  0.00    +0.000 A 
ATOM     14  O   UNL     1      10.946  15.536  44.010  0.00  0.00    +0.000 OA
ATOM     15  C   UNL     1      10.567  14.224  43.864  0.00  0.00    +0.000 A 
ENDROOT
BRANCH   6  16
ATOM     16  O   UNL     1      14.471  12.692  44.134  0.00  0.00    +0.000 OA
ATOM     17  C   UNL     1      14.855  12.821  42.745  0.00  0.00    +0.000 C 
ENDBRANCH   6  16
BRANCH   9  18
ATOM     18  O   UNL     1      12.659  17.505  43.589  0.00  0.00    +0.000 OA
ATOM     19  C   UNL     1      12.980  17.940  42.251  0.00  0.00    +0.000 C 
ENDBRANCH   9  18
TORSDOF 2
ENDMDL
MODEL 8
REMARK VINA RESULT:    -5.100      2.066      3.941
REMARK INTER + INTRA:          -5.986
REMARK INTER:                  -5.742
REMARK INTRA:                  -0.243
REMARK UNBOUND:                -0.289
REMARK  Name = opt21.pdb
REMARK  5 active torsions:
REMARK  status: ('A' for Active; 'I' for Inactive)
REMARK    1  A    between atoms: C_6  and  O_10
REMARK    2  A    between atoms: C_7  and  C_12
REMARK    3  A    between atoms: C_9  and  O_13
REMARK    4  A    between atoms: O_10  and  C_15
REMARK    5  A    between atoms: O_13  and  C_17
REMARK                            x       y       z     vdW  Elec       q    Type
REMARK                         _______ _______ _______ _____ _____    ______ ____
ROOT
ATOM      1  O   UNL     1      13.410  17.793  45.393  0.00  0.00    +0.000 OA
ATOM      2  C   UNL     1      12.619  17.187  44.695  0.00  0.00    +0.000 A 
ATOM      3  C   UNL     1      12.779  15.781  44.292  0.00  0.00    +0.000 A 
ATOM      4  C   UNL     1      11.426  17.828  44.143  0.00  0.00    +0.000 A 
ATOM      5  C   UNL     1      11.779  15.152  43.556  0.00  0.00    +0.000 A 
ATOM      6  C   UNL     1      13.952  15.002  44.641  0.00  0.00    +0.000 A 
ATOM      7  C   UNL     1      10.518  17.124  43.387  0.00  0.00    +0.000 A 
ATOM      8  O   UNL     1      10.579  15.755  43.193  0.00  0.00    +0.000 OA
ATOM      9  C   UNL     1      11.897  13.733  43.261  0.00  0.00    +0.000 A 
ATOM     10  C   UNL     1      13.792  13.577  44.744  0.00  0.00    +0.000 A 
ATOM     11  C   UNL     1       9.324  17.820  42.796  0.00  0.00    +0.000 C 
ATOM     12  C   UNL     1      12.687  12.911  44.150  0.00  0.00    +0.000 A 
ATOM     13  C   UNL     1      14.879  12.652  44.771  0.00  0.00    +0.000 A 
ATOM     14  O   UNL     1      13.060  11.614  43.873  0.00  0.00    +0.000 OA
ATOM     15  C   UNL     1      14.367  11.481  44.272  0.00  0.00    +0.000 A 
ENDROOT
BRANCH   6  16
ATOM     16  O   UNL     1      15.149  15.610  44.311  0.00  0.00    +0.000 OA
ATOM     17  C   UNL     1      15.512  15.769  42.920  0.00  0.00    +0.000 C 
ENDBRANCH   6  16
BRANCH   9  18
ATOM     18  O   UNL     1      11.188  12.843  42.470  0.00  0.00    +0.000 OA
ATOM     19  C   UNL     1       9.886  12.359  42.862  0.00  0.00    +0.000 C 
ENDBRANCH   9  18
TORSDOF 2
ENDMDL
MODEL 9
REMARK VINA RESULT:    -5.074      4.511      7.381
REMARK INTER + INTRA:          -5.956
REMARK INTER:                  -5.709
REMARK INTRA:                  -0.247
REMARK UNBOUND:                -0.289
REMARK  Name = opt21.pdb
REMARK  5 active torsions:
REMARK  status: ('A' for Active; 'I' for Inactive)
REMARK    1  A    between atoms: C_6  and  O_10
REMARK    2  A    between atoms: C_7  and  C_12
REMARK    3  A    between atoms: C_9  and  O_13
REMARK    4  A    between atoms: O_10  and  C_15
REMARK    5  A    between atoms: O_13  and  C_17
REMARK                            x       y       z     vdW  Elec       q    Type
REMARK                         _______ _______ _______ _____ _____    ______ ____
ROOT
ATOM      1  O   UNL     1       6.123  17.012  43.617  0.00  0.00    +0.000 OA
ATOM      2  C   UNL     1       7.218  16.484  43.639  0.00  0.00    +0.000 A 
ATOM      3  C   UNL     1       7.435  15.029  43.682  0.00  0.00    +0.000 A 
ATOM      4  C   UNL     1       8.453  17.266  43.671  0.00  0.00    +0.000 A 
ATOM      5  C   UNL     1       8.728  14.518  43.626  0.00  0.00    +0.000 A 
ATOM      6  C   UNL     1       6.338  14.083  43.772  0.00  0.00    +0.000 A 
ATOM      7  C   UNL     1       9.688  16.659  43.658  0.00  0.00    +0.000 A 
ATOM      8  O   UNL     1       9.871  15.299  43.487  0.00  0.00    +0.000 OA
ATOM      9  C   UNL     1       8.923  13.079  43.554  0.00  0.00    +0.000 A 
ATOM     10  C   UNL     1       6.554  12.768  43.231  0.00  0.00    +0.000 A 
ATOM     11  C   UNL     1      10.939  17.488  43.735  0.00  0.00    +0.000 C 
ATOM     12  C   UNL     1       7.862  12.269  42.996  0.00  0.00    +0.000 A 
ATOM     13  C   UNL     1       5.716  11.646  43.507  0.00  0.00    +0.000 A 
ATOM     14  O   UNL     1       7.823  10.894  43.069  0.00  0.00    +0.000 OA
ATOM     15  C   UNL     1       6.525  10.548  43.356  0.00  0.00    +0.000 A 
ENDROOT
BRANCH   6  16
ATOM     16  O   UNL     1       5.453  14.345  44.801  0.00  0.00    +0.000 OA
ATOM     17  C   UNL     1       5.872  14.154  46.172  0.00  0.00    +0.000 C 
ENDBRANCH   6  16
BRANCH   9  18
ATOM     18  O   UNL     1      10.027  12.244  43.620  0.00  0.00    +0.000 OA
ATOM     19  C   UNL     1      10.973  12.159  42.533  0.00  0.00    +0.000 C 
ENDBRANCH   9  18
TORSDOF 2
ENDMDL
MODEL 10
REMARK VINA RESULT:    -5.064      1.566      2.541
REMARK INTER + INTRA:          -5.945
REMARK INTER:                  -5.656
REMARK INTRA:                  -0.289
REMARK UNBOUND:                -0.289
REMARK  Name = opt21.pdb
REMARK  5 active torsions:
REMARK  status: ('A' for Active; 'I' for Inactive)
REMARK    1  A    between atoms: C_6  and  O_10
REMARK    2  A    between atoms: C_7  and  C_12
REMARK    3  A    between atoms: C_9  and  O_13
REMARK    4  A    between atoms: O_10  and  C_15
REMARK    5  A    between atoms: O_13  and  C_17
REMARK                            x       y       z     vdW  Elec       q    Type
REMARK                         _______ _______ _______ _____ _____    ______ ____
ROOT
ATOM      1  O   UNL     1      16.082  17.525  45.336  0.00  0.00    +0.000 OA
ATOM      2  C   UNL     1      14.930  17.365  44.980  0.00  0.00    +0.000 A 
ATOM      3  C   UNL     1      14.350  16.064  44.610  0.00  0.00    +0.000 A 
ATOM      4  C   UNL     1      14.001  18.487  44.841  0.00  0.00    +0.000 A 
ATOM      5  C   UNL     1      12.999  15.972  44.291  0.00  0.00    +0.000 A 
ATOM      6  C   UNL     1      15.138  14.847  44.572  0.00  0.00    +0.000 A 
ATOM      7  C   UNL     1      12.690  18.291  44.474  0.00  0.00    +0.000 A 
ATOM      8  O   UNL     1      12.111  17.042  44.334  0.00  0.00    +0.000 OA
ATOM      9  C   UNL     1      12.414  14.666  44.039  0.00  0.00    +0.000 A 
ATOM     10  C   UNL     1      14.446  13.605  44.789  0.00  0.00    +0.000 A 
ATOM     11  C   UNL     1      11.770  19.467  44.297  0.00  0.00    +0.000 C 
ATOM     12  C   UNL     1      13.037  13.507  44.640  0.00  0.00    +0.000 A 
ATOM     13  C   UNL     1      14.994  12.323  44.484  0.00  0.00    +0.000 A 
ATOM     14  O   UNL     1      12.724  12.206  44.312  0.00  0.00    +0.000 OA
ATOM     15  C   UNL     1      13.910  11.516  44.244  0.00  0.00    +0.000 A 
ENDROOT
BRANCH   6  16
ATOM     16  O   UNL     1      16.296  14.950  43.825  0.00  0.00    +0.000 OA
ATOM     17  C   UNL     1      16.211  15.079  42.387  0.00  0.00    +0.000 C 
ENDBRANCH   6  16
BRANCH   9  18
ATOM     18  O   UNL     1      11.183  14.224  43.580  0.00  0.00    +0.000 OA
ATOM     19  C   UNL     1      10.776  14.417  42.209  0.00  0.00    +0.000 C 
ENDBRANCH   9  18
TORSDOF 2
ENDMDL
MODEL 11
REMARK VINA RESULT:    -5.058      2.857      6.758
REMARK INTER + INTRA:          -5.939
REMARK INTER:                  -5.675
REMARK INTRA:                  -0.263
REMARK UNBOUND:                -0.289
REMARK  Name = opt21.pdb
REMARK  5 active torsions:
REMARK  status: ('A' for Active; 'I' for Inactive)
REMARK    1  A    between atoms: C_6  and  O_10
REMARK    2  A    between atoms: C_7  and  C_12
REMARK    3  A    between atoms: C_9  and  O_13
REMARK    4  A    between atoms: O_10  and  C_15
REMARK    5  A    between atoms: O_13  and  C_17
REMARK                            x       y       z     vdW  Elec       q    Type
REMARK                         _______ _______ _______ _____ _____    ______ ____
ROOT
ATOM      1  O   UNL     1       7.328  16.727  43.649  0.00  0.00    +0.000 OA
ATOM      2  C   UNL     1       7.800  15.607  43.703  0.00  0.00    +0.000 A 
ATOM      3  C   UNL     1       9.240  15.320  43.808  0.00  0.00    +0.000 A 
ATOM      4  C   UNL     1       6.963  14.411  43.622  0.00  0.00    +0.000 A 
ATOM      5  C   UNL     1       9.676  14.005  43.943  0.00  0.00    +0.000 A 
ATOM      6  C   UNL     1      10.243  16.366  43.787  0.00  0.00    +0.000 A 
ATOM      7  C   UNL     1       7.503  13.149  43.722  0.00  0.00    +0.000 A 
ATOM      8  O   UNL     1       8.829  12.905  44.029  0.00  0.00    +0.000 OA
ATOM      9  C   UNL     1      11.089  13.743  44.160  0.00  0.00    +0.000 A 
ATOM     10  C   UNL     1      11.487  16.102  44.459  0.00  0.00    +0.000 A 
ATOM     11  C   UNL     1       6.622  11.937  43.591  0.00  0.00    +0.000 C 
ATOM     12  C   UNL     1      11.894  14.778  44.771  0.00  0.00    +0.000 A 
ATOM     13  C   UNL     1      12.672  16.877  44.277  0.00  0.00    +0.000 A 
ATOM     14  O   UNL     1      13.270  14.750  44.833  0.00  0.00    +0.000 OA
ATOM     15  C   UNL     1      13.708  16.021  44.553  0.00  0.00    +0.000 A 
ENDROOT
BRANCH   6  16
ATOM     16  O   UNL     1      10.127  17.235  42.718  0.00  0.00    +0.000 OA
ATOM     17  C   UNL     1      10.400  16.762  41.379  0.00  0.00    +0.000 C 
ENDBRANCH   6  16
BRANCH   9  18
ATOM     18  O   UNL     1      11.870  12.598  44.201  0.00  0.00    +0.000 OA
ATOM     19  C   UNL     1      11.918  11.678  43.090  0.00  0.00    +0.000 C 
ENDBRANCH   9  18
TORSDOF 2
ENDMDL
MODEL 12
REMARK VINA RESULT:    -5.051      2.266      6.054
REMARK INTER + INTRA:          -5.931
REMARK INTER:                  -5.646
REMARK INTRA:                  -0.285
REMARK UNBOUND:                -0.289
REMARK  Name = opt21.pdb
REMARK  5 active torsions:
REMARK  status: ('A' for Active; 'I' for Inactive)
REMARK    1  A    between atoms: C_6  and  O_10
REMARK    2  A    between atoms: C_7  and  C_12
REMARK    3  A    between atoms: C_9  and  O_13
REMARK    4  A    between atoms: O_10  and  C_15
REMARK    5  A    between atoms: O_13  and  C_17
REMARK                            x       y       z     vdW  Elec       q    Type
REMARK                         _______ _______ _______ _____ _____    ______ ____
ROOT
ATOM      1  O   UNL     1       8.747  17.284  43.525  0.00  0.00    +0.000 OA
ATOM      2  C   UNL     1       9.045  16.116  43.689  0.00  0.00    +0.000 A 
ATOM      3  C   UNL     1      10.424  15.628  43.852  0.00  0.00    +0.000 A 
ATOM      4  C   UNL     1       8.039  15.055  43.696  0.00  0.00    +0.000 A 
ATOM      5  C   UNL     1      10.657  14.281  44.113  0.00  0.00    +0.000 A 
ATOM      6  C   UNL     1      11.574  16.507  43.761  0.00  0.00    +0.000 A 
ATOM      7  C   UNL     1       8.382  13.741  43.920  0.00  0.00    +0.000 A 
ATOM      8  O   UNL     1       9.653  13.332  44.278  0.00  0.00    +0.000 OA
ATOM      9  C   UNL     1      12.013  13.832  44.385  0.00  0.00    +0.000 A 
ATOM     10  C   UNL     1      12.757  16.124  44.482  0.00  0.00    +0.000 A 
ATOM     11  C   UNL     1       7.331  12.667  43.878  0.00  0.00    +0.000 C 
ATOM     12  C   UNL     1      12.958  14.788  44.920  0.00  0.00    +0.000 A 
ATOM     13  C   UNL     1      14.047  16.694  44.258  0.00  0.00    +0.000 A 
ATOM     14  O   UNL     1      14.313  14.561  45.015  0.00  0.00    +0.000 OA
ATOM     15  C   UNL     1      14.940  15.722  44.633  0.00  0.00    +0.000 A 
ENDROOT
BRANCH   6  16
ATOM     16  O   UNL     1      11.599  17.282  42.617  0.00  0.00    +0.000 OA
ATOM     17  C   UNL     1      11.791  16.651  41.329  0.00  0.00    +0.000 C 
ENDBRANCH   6  16
BRANCH   9  18
ATOM     18  O   UNL     1      12.613  12.593  44.546  0.00  0.00    +0.000 OA
ATOM     19  C   UNL     1      12.899  11.743  43.416  0.00  0.00    +0.000 C 
ENDBRANCH   9  18
TORSDOF 2
ENDMDL
MODEL 13
REMARK VINA RESULT:    -4.991      3.815      7.935
REMARK INTER + INTRA:          -5.863
REMARK INTER:                  -5.600
REMARK INTRA:                  -0.263
REMARK UNBOUND:                -0.289
REMARK  Name = opt21.pdb
REMARK  5 active torsions:
REMARK  status: ('A' for Active; 'I' for Inactive)
REMARK    1  A    between atoms: C_6  and  O_10
REMARK    2  A    between atoms: C_7  and  C_12
REMARK    3  A    between atoms: C_9  and  O_13
REMARK    4  A    between atoms: O_10  and  C_15
REMARK    5  A    between atoms: O_13  and  C_17
REMARK                            x       y       z     vdW  Elec       q    Type
REMARK                         _______ _______ _______ _____ _____    ______ ____
ROOT
ATOM      1  O   UNL     1       5.450  14.411  43.711  0.00  0.00    +0.000 OA
ATOM      2  C   UNL     1       6.257  13.508  43.592  0.00  0.00    +0.000 A 
ATOM      3  C   UNL     1       7.701  13.709  43.394  0.00  0.00    +0.000 A 
ATOM      4  C   UNL     1       5.851  12.103  43.594  0.00  0.00    +0.000 A 
ATOM      5  C   UNL     1       8.555  12.611  43.347  0.00  0.00    +0.000 A 
ATOM      6  C   UNL     1       8.288  15.028  43.249  0.00  0.00    +0.000 A 
ATOM      7  C   UNL     1       6.775  11.089  43.497  0.00  0.00    +0.000 A 
ATOM      8  O   UNL     1       8.143  11.293  43.521  0.00  0.00    +0.000 OA
ATOM      9  C   UNL     1       9.990  12.827  43.265  0.00  0.00    +0.000 A 
ATOM     10  C   UNL     1       9.662  15.186  43.645  0.00  0.00    +0.000 A 
ATOM     11  C   UNL     1       6.324   9.655  43.457  0.00  0.00    +0.000 C 
ATOM     12  C   UNL     1      10.528  14.068  43.777  0.00  0.00    +0.000 A 
ATOM     13  C   UNL     1      10.470  16.307  43.289  0.00  0.00    +0.000 A 
ATOM     14  O   UNL     1      11.821  14.493  43.566  0.00  0.00    +0.000 OA
ATOM     15  C   UNL     1      11.759  15.838  43.296  0.00  0.00    +0.000 A 
ENDROOT
BRANCH   6  16
ATOM     16  O   UNL     1       7.680  15.812  42.288  0.00  0.00    +0.000 OA
ATOM     17  C   UNL     1       7.830  15.475  40.889  0.00  0.00    +0.000 C 
ENDBRANCH   6  16
BRANCH   9  18
ATOM     18  O   UNL     1      11.087  12.003  43.072  0.00  0.00    +0.000 OA
ATOM     19  C   UNL     1      11.498  11.593  41.750  0.00  0.00    +0.000 C 
ENDBRANCH   9  18
TORSDOF 2
ENDMDL
MODEL 14
REMARK VINA RESULT:    -4.980      1.976      4.644
REMARK INTER + INTRA:          -5.852
REMARK INTER:                  -5.764
REMARK INTRA:                  -0.088
REMARK UNBOUND:                -0.289
REMARK  Name = opt21.pdb
REMARK  5 active torsions:
REMARK  status: ('A' for Active; 'I' for Inactive)
REMARK    1  A    between atoms: C_6  and  O_10
REMARK    2  A    between atoms: C_7  and  C_12
REMARK    3  A    between atoms: C_9  and  O_13
REMARK    4  A    between atoms: O_10  and  C_15
REMARK    5  A    between atoms: O_13  and  C_17
REMARK                            x       y       z     vdW  Elec       q    Type
REMARK                         _______ _______ _______ _____ _____    ______ ____
ROOT
ATOM      1  O   UNL     1      12.458  18.358  44.089  0.00  0.00    +0.000 OA
ATOM      2  C   UNL     1      11.738  17.387  43.951  0.00  0.00    +0.000 A 
ATOM      3  C   UNL     1      12.214  15.995  43.963  0.00  0.00    +0.000 A 
ATOM      4  C   UNL     1      10.301  17.518  43.713  0.00  0.00    +0.000 A 
ATOM      5  C   UNL     1      11.301  14.948  43.876  0.00  0.00    +0.000 A 
ATOM      6  C   UNL     1      13.620  15.657  44.071  0.00  0.00    +0.000 A 
ATOM      7  C   UNL     1       9.489  16.414  43.598  0.00  0.00    +0.000 A 
ATOM      8  O   UNL     1       9.921  15.118  43.819  0.00  0.00    +0.000 OA
ATOM      9  C   UNL     1      11.772  13.579  44.003  0.00  0.00    +0.000 A 
ATOM     10  C   UNL     1      13.950  14.383  44.652  0.00  0.00    +0.000 A 
ATOM     11  C   UNL     1       8.023  16.579  43.309  0.00  0.00    +0.000 C 
ATOM     12  C   UNL     1      12.992  13.339  44.741  0.00  0.00    +0.000 A 
ATOM     13  C   UNL     1      15.236  13.771  44.553  0.00  0.00    +0.000 A 
ATOM     14  O   UNL     1      13.662  12.135  44.751  0.00  0.00    +0.000 OA
ATOM     15  C   UNL     1      15.002  12.423  44.658  0.00  0.00    +0.000 A 
ENDROOT
BRANCH   6  16
ATOM     16  O   UNL     1      14.427  16.306  43.156  0.00  0.00    +0.000 OA
ATOM     17  C   UNL     1      15.536  17.109  43.623  0.00  0.00    +0.000 C 
ENDBRANCH   6  16
BRANCH   9  18
ATOM     18  O   UNL     1      11.190  12.332  43.839  0.00  0.00    +0.000 OA
ATOM     19  C   UNL     1      11.024  11.744  42.532  0.00  0.00    +0.000 C 
ENDBRANCH   9  18
TORSDOF 2
ENDMDL
MODEL 15
REMARK VINA RESULT:    -4.941      2.224      4.850
REMARK INTER + INTRA:          -5.808
REMARK INTER:                  -5.767
REMARK INTRA:                  -0.041
REMARK UNBOUND:                -0.289
REMARK  Name = opt21.pdb
REMARK  5 active torsions:
REMARK  status: ('A' for Active; 'I' for Inactive)
REMARK    1  A    between atoms: C_6  and  O_10
REMARK    2  A    between atoms: C_7  and  C_12
REMARK    3  A    between atoms: C_9  and  O_13
REMARK    4  A    between atoms: O_10  and  C_15
REMARK    5  A    between atoms: O_13  and  C_17
REMARK                            x       y       z     vdW  Elec       q    Type
REMARK                         _______ _______ _______ _____ _____    ______ ____
ROOT
ATOM      1  O   UNL     1      14.593  15.934  44.247  0.00  0.00    +0.000 OA
ATOM      2  C   UNL     1      13.840  14.979  44.238  0.00  0.00    +0.000 A 
ATOM      3  C   UNL     1      12.373  15.082  44.187  0.00  0.00    +0.000 A 
ATOM      4  C   UNL     1      14.333  13.605  44.323  0.00  0.00    +0.000 A 
ATOM      5  C   UNL     1      11.599  13.929  44.101  0.00  0.00    +0.000 A 
ATOM      6  C   UNL     1      11.683  16.358  44.214  0.00  0.00    +0.000 A 
ATOM      7  C   UNL     1      13.475  12.530  44.273  0.00  0.00    +0.000 A 
ATOM      8  O   UNL     1      12.121  12.642  44.016  0.00  0.00    +0.000 OA
ATOM      9  C   UNL     1      10.159  14.047  43.937  0.00  0.00    +0.000 A 
ATOM     10  C   UNL     1      10.390  16.422  43.589  0.00  0.00    +0.000 A 
ATOM     11  C   UNL     1      14.008  11.131  44.407  0.00  0.00    +0.000 C 
ATOM     12  C   UNL     1       9.635  15.248  43.325  0.00  0.00    +0.000 A 
ATOM     13  C   UNL     1       9.460  17.487  43.790  0.00  0.00    +0.000 A 
ATOM     14  O   UNL     1       8.299  15.585  43.309  0.00  0.00    +0.000 OA
ATOM     15  C   UNL     1       8.225  16.932  43.570  0.00  0.00    +0.000 A 
ENDROOT
BRANCH   6  16
ATOM     16  O   UNL     1      12.066  17.182  45.255  0.00  0.00    +0.000 OA
ATOM     17  C   UNL     1      12.526  18.525  44.972  0.00  0.00    +0.000 C 
ENDBRANCH   6  16
BRANCH   9  18
ATOM     18  O   UNL     1       9.102  13.151  43.951  0.00  0.00    +0.000 OA
ATOM     19  C   UNL     1       8.812  12.310  42.814  0.00  0.00    +0.000 C 
ENDBRANCH   9  18
TORSDOF 2
ENDMDL
MODEL 16
REMARK VINA RESULT:    -4.658      1.468      5.622
REMARK INTER + INTRA:          -5.492
REMARK INTER:                  -5.227
REMARK INTRA:                  -0.265
REMARK UNBOUND:                -0.289
REMARK  Name = opt21.pdb
REMARK  5 active torsions:
REMARK  status: ('A' for Active; 'I' for Inactive)
REMARK    1  A    between atoms: C_6  and  O_10
REMARK    2  A    between atoms: C_7  and  C_12
REMARK    3  A    between atoms: C_9  and  O_13
REMARK    4  A    between atoms: O_10  and  C_15
REMARK    5  A    between atoms: O_13  and  C_17
REMARK                            x       y       z     vdW  Elec       q    Type
REMARK                         _______ _______ _______ _____ _____    ______ ____
ROOT
ATOM      1  O   UNL     1      11.857  15.575  44.471  0.00  0.00    +0.000 OA
ATOM      2  C   UNL     1      12.897  14.946  44.530  0.00  0.00    +0.000 A 
ATOM      3  C   UNL     1      14.226  15.556  44.698  0.00  0.00    +0.000 A 
ATOM      4  C   UNL     1      12.928  13.490  44.393  0.00  0.00    +0.000 A 
ATOM      5  C   UNL     1      15.349  14.746  44.833  0.00  0.00    +0.000 A 
ATOM      6  C   UNL     1      14.420  16.993  44.738  0.00  0.00    +0.000 A 
ATOM      7  C   UNL     1      14.105  12.785  44.500  0.00  0.00    +0.000 A 
ATOM      8  O   UNL     1      15.311  13.355  44.864  0.00  0.00    +0.000 OA
ATOM      9  C   UNL     1      16.638  15.356  45.111  0.00  0.00    +0.000 A 
ATOM     10  C   UNL     1      15.560  17.485  45.462  0.00  0.00    +0.000 A 
ATOM     11  C   UNL     1      14.111  11.293  44.311  0.00  0.00    +0.000 C 
ATOM     12  C   UNL     1      16.660  16.642  45.774  0.00  0.00    +0.000 A 
ATOM     13  C   UNL     1      16.066  18.815  45.346  0.00  0.00    +0.000 A 
ATOM     14  O   UNL     1      17.786  17.426  45.898  0.00  0.00    +0.000 OA
ATOM     15  C   UNL     1      17.399  18.721  45.657  0.00  0.00    +0.000 A 
ENDROOT
BRANCH   6  16
ATOM     16  O   UNL     1      13.845  17.668  43.678  0.00  0.00    +0.000 OA
ATOM     17  C   UNL     1      14.294  17.398  42.329  0.00  0.00    +0.000 C 
ENDBRANCH   6  16
BRANCH   9  18
ATOM     18  O   UNL     1      17.942  14.890  45.172  0.00  0.00    +0.000 OA
ATOM     19  C   UNL     1      18.599  14.339  44.011  0.00  0.00    +0.000 C 
ENDBRANCH   9  18
TORSDOF 2
ENDMDL
MODEL 17
REMARK VINA RESULT:    -4.653      1.969      3.790
REMARK INTER + INTRA:          -5.487
REMARK INTER:                  -5.242
REMARK INTRA:                  -0.245
REMARK UNBOUND:                -0.289
REMARK  Name = opt21.pdb
REMARK  5 active torsions:
REMARK  status: ('A' for Active; 'I' for Inactive)
REMARK    1  A    between atoms: C_6  and  O_10
REMARK    2  A    between atoms: C_7  and  C_12
REMARK    3  A    between atoms: C_9  and  O_13
REMARK    4  A    between atoms: O_10  and  C_15
REMARK    5  A    between atoms: O_13  and  C_17
REMARK                            x       y       z     vdW  Elec       q    Type
REMARK                         _______ _______ _______ _____ _____    ______ ____
ROOT
ATOM      1  O   UNL     1      15.162  17.361  41.861  0.00  0.00    +0.000 OA
ATOM      2  C   UNL     1      15.331  16.342  42.504  0.00  0.00    +0.000 A 
ATOM      3  C   UNL     1      14.243  15.467  42.969  0.00  0.00    +0.000 A 
ATOM      4  C   UNL     1      16.662  15.904  42.922  0.00  0.00    +0.000 A 
ATOM      5  C   UNL     1      14.543  14.280  43.631  0.00  0.00    +0.000 A 
ATOM      6  C   UNL     1      12.844  15.787  42.757  0.00  0.00    +0.000 A 
ATOM      7  C   UNL     1      16.846  14.730  43.615  0.00  0.00    +0.000 A 
ATOM      8  O   UNL     1      15.835  13.818  43.861  0.00  0.00    +0.000 OA
ATOM      9  C   UNL     1      13.466  13.370  43.985  0.00  0.00    +0.000 A 
ATOM     10  C   UNL     1      11.918  14.689  42.689  0.00  0.00    +0.000 A 
ATOM     11  C   UNL     1      18.221  14.327  44.069  0.00  0.00    +0.000 C 
ATOM     12  C   UNL     1      12.251  13.407  43.201  0.00  0.00    +0.000 A 
ATOM     13  C   UNL     1      10.502  14.833  42.795  0.00  0.00    +0.000 A 
ATOM     14  O   UNL     1      11.084  12.766  43.557  0.00  0.00    +0.000 OA
ATOM     15  C   UNL     1      10.054  13.632  43.285  0.00  0.00    +0.000 A 
ENDROOT
BRANCH   6  16
ATOM     16  O   UNL     1      12.489  17.056  43.174  0.00  0.00    +0.000 OA
ATOM     17  C   UNL     1      12.477  17.368  44.587  0.00  0.00    +0.000 C 
ENDBRANCH   6  16
BRANCH   9  18
ATOM     18  O   UNL     1      13.382  12.209  44.737  0.00  0.00    +0.000 OA
ATOM     19  C   UNL     1      14.006  10.982  44.302  0.00  0.00    +0.000 C 
ENDBRANCH   9  18
TORSDOF 2
ENDMDL
MODEL 18
REMARK VINA RESULT:    -4.581      1.197      4.524
REMARK INTER + INTRA:          -5.406
REMARK INTER:                  -5.346
REMARK INTRA:                  -0.060
REMARK UNBOUND:                -0.289
REMARK  Name = opt21.pdb
REMARK  5 active torsions:
REMARK  status: ('A' for Active; 'I' for Inactive)
REMARK    1  A    between atoms: C_6  and  O_10
REMARK    2  A    between atoms: C_7  and  C_12
REMARK    3  A    between atoms: C_9  and  O_13
REMARK    4  A    between atoms: O_10  and  C_15
REMARK    5  A    between atoms: O_13  and  C_17
REMARK                            x       y       z     vdW  Elec       q    Type
REMARK                         _______ _______ _______ _____ _____    ______ ____
ROOT
ATOM      1  O   UNL     1      15.443  12.388  43.394  0.00  0.00    +0.000 OA
ATOM      2  C   UNL     1      14.305  12.802  43.507  0.00  0.00    +0.000 A 
ATOM      3  C   UNL     1      13.955  14.126  44.046  0.00  0.00    +0.000 A 
ATOM      4  C   UNL     1      13.147  11.985  43.148  0.00  0.00    +0.000 A 
ATOM      5  C   UNL     1      12.626  14.539  44.063  0.00  0.00    +0.000 A 
ATOM      6  C   UNL     1      14.953  15.042  44.565  0.00  0.00    +0.000 A 
ATOM      7  C   UNL     1      11.865  12.476  43.243  0.00  0.00    +0.000 A 
ATOM      8  O   UNL     1      11.568  13.791  43.554  0.00  0.00    +0.000 OA
ATOM      9  C   UNL     1      12.305  15.890  44.491  0.00  0.00    +0.000 A 
ATOM     10  C   UNL     1      14.651  16.447  44.511  0.00  0.00    +0.000 A 
ATOM     11  C   UNL     1      10.692  11.597  42.909  0.00  0.00    +0.000 C 
ATOM     12  C   UNL     1      13.319  16.913  44.355  0.00  0.00    +0.000 A 
ATOM     13  C   UNL     1      15.365  17.444  45.242  0.00  0.00    +0.000 A 
ATOM     14  O   UNL     1      13.229  18.167  44.917  0.00  0.00    +0.000 OA
ATOM     15  C   UNL     1      14.470  18.468  45.422  0.00  0.00    +0.000 A 
ENDROOT
BRANCH   6  16
ATOM     16  O   UNL     1      15.796  14.481  45.506  0.00  0.00    +0.000 OA
ATOM     17  C   UNL     1      17.225  14.492  45.283  0.00  0.00    +0.000 C 
ENDBRANCH   6  16
BRANCH   9  18
ATOM     18  O   UNL     1      11.127  16.573  44.753  0.00  0.00    +0.000 OA
ATOM     19  C   UNL     1      10.216  16.937  43.694  0.00  0.00    +0.000 C 
ENDBRANCH   9  18
TORSDOF 2
ENDMDL
