REMARK  Name = opt09.pdb
REMARK  4 active torsions:
REMARK  status: ('A' for Active; 'I' for Inactive)
REMARK    1  A    between atoms: C_8  and  O_12
REMARK    2  A    between atoms: C_11  and  O_17
REMARK    3  A    between atoms: C_13  and  O_18
REMARK    4  A    between atoms: C_16  and  O_21
REMARK                            x       y       z     vdW  Elec       q    Type
REMARK                         _______ _______ _______ _____ _____    ______ ____
ROOT
ATOM      1  O   UNL     1       1.065   0.226  -0.095  0.00  0.00    +0.000 OA
ATOM      2  C   UNL     1       2.275   0.136  -0.092  0.00  0.00    +0.000 A 
ATOM      3  O   UNL     1       3.057   1.248  -0.090  0.00  0.00    +0.000 OA
ATOM      4  C   UNL     1       3.008  -1.144  -0.090  0.00  0.00    +0.000 A 
ATOM      5  C   UNL     1       4.440   1.243  -0.078  0.00  0.00    +0.000 A 
ATOM      6  C   UNL     1       4.447  -1.179  -0.091  0.00  0.00    +0.000 A 
ATOM      7  C   UNL     1       2.346  -2.433  -0.090  0.00  0.00    +0.000 A 
ATOM      8  C   UNL     1       5.164   2.481  -0.090  0.00  0.00    +0.000 A 
ATOM      9  C   UNL     1       5.157   0.004  -0.087  0.00  0.00    +0.000 A 
ATOM     10  C   UNL     1       5.164  -2.416  -0.099  0.00  0.00    +0.000 A 
ATOM     11  C   UNL     1       3.050  -3.641  -0.089  0.00  0.00    +0.000 A 
ATOM     12  C   UNL     1       6.558   2.454  -0.094  0.00  0.00    +0.000 A 
ATOM     13  C   UNL     1       6.596  -0.034  -0.089  0.00  0.00    +0.000 A 
ATOM     14  O   UNL     1       6.547  -2.423  -0.087  0.00  0.00    +0.000 OA
ATOM     15  C   UNL     1       4.443  -3.654  -0.091  0.00  0.00    +0.000 A 
ATOM     16  C   UNL     1       7.263   1.249  -0.092  0.00  0.00    +0.000 A 
ATOM     17  C   UNL     1       7.329  -1.313  -0.087  0.00  0.00    +0.000 A 
ATOM     18  O   UNL     1       8.539  -1.404  -0.085  0.00  0.00    +0.000 OA
ENDROOT
BRANCH   8  19
ATOM     19  O   UNL     1       4.500   3.672  -0.092  0.00  0.00    +0.000 OA
ATOM     20  H   UNL     1       3.543   3.480  -0.088  0.00  0.00    +0.000 HD
ENDBRANCH   8  19
BRANCH  11  21
ATOM     21  O   UNL     1       2.377  -4.826  -0.087  0.00  0.00    +0.000 OA
ATOM     22  H   UNL     1       1.426  -4.670  -0.089  0.00  0.00    +0.000 HD
ENDBRANCH  11  21
BRANCH  12  23
ATOM     23  O   UNL     1       7.231   3.634  -0.100  0.00  0.00    +0.000 OA
ATOM     24  H   UNL     1       6.547   4.335  -0.100  0.00  0.00    +0.000 HD
ENDBRANCH  12  23
BRANCH  15  25
ATOM     25  O   UNL     1       5.143  -4.819  -0.089  0.00  0.00    +0.000 OA
ATOM     26  H   UNL     1       6.083  -4.580  -0.089  0.00  0.00    +0.000 HD
ENDBRANCH  15  25
TORSDOF 4
