REMARK  Name = opt06.pdb
REMARK  10 active torsions:
REMARK  status: ('A' for Active; 'I' for Inactive)
REMARK    1  A    between atoms: C_2  and  O_3
REMARK    2  A    between atoms: C_2  and  C_4
REMARK    3  A    between atoms: O_3  and  C_5
REMARK    4  A    between atoms: C_6  and  C_9
REMARK    5  A    between atoms: C_7  and  O_10
REMARK    6  A    between atoms: C_11  and  O_15
REMARK    7  A    between atoms: C_12  and  O_17
REMARK    8  A    between atoms: C_12  and  C_18
REMARK    9  A    between atoms: C_19  and  O_23
REMARK   10  A    between atoms: C_24  and  O_25
REMARK                            x       y       z     vdW  Elec       q    Type
REMARK                         _______ _______ _______ _____ _____    ______ ____
ROOT
ATOM      1  O   UNL     1       5.013   1.700  -0.066  0.00  0.00    +0.000 OA
ENDROOT
BRANCH   1   2
ATOM      2  C   UNL     1       4.649   0.715  -1.093  0.00  0.00    +0.000 C 
ATOM      3  C   UNL     1       5.077   1.215  -2.496  0.00  0.00    +0.000 C 
ATOM      4  C   UNL     1       5.159  -0.721  -0.803  0.00  0.00    +0.000 C 
ATOM      5  C   UNL     1       4.667   0.213  -3.601  0.00  0.00    +0.000 C 
ATOM      6  C   UNL     1       4.650  -1.706  -1.890  0.00  0.00    +0.000 C 
ATOM      7  C   UNL     1       5.150  -1.224  -3.282  0.00  0.00    +0.000 C 
BRANCH   6   8
ATOM      8  C   UNL     1       3.128  -1.854  -1.837  0.00  0.00    +0.000 C 
ATOM      9  O   UNL     1       2.592  -1.835  -0.746  0.00  0.00    +0.000 OA
ATOM     10  O   UNL     1       2.510  -1.941  -2.880  0.00  0.00    +0.000 OA
ENDBRANCH   6   8
BRANCH   6  11
ATOM     11  O   UNL     1       5.234  -2.991  -1.631  0.00  0.00    +0.000 OA
ATOM     12  H   UNL     1       6.184  -2.858  -1.481  0.00  0.00    +0.000 HD
ENDBRANCH   6  11
BRANCH   3  13
ATOM     13  O   UNL     1       6.494   1.454  -2.566  0.00  0.00    +0.000 OA
ATOM     14  H   UNL     1       6.915   0.907  -1.874  0.00  0.00    +0.000 HD
ENDBRANCH   3  13
BRANCH   5  15
ATOM     15  O   UNL     1       5.272   0.659  -4.817  0.00  0.00    +0.000 OA
ATOM     16  H   UNL     1       6.114   1.059  -4.524  0.00  0.00    +0.000 HD
ENDBRANCH   5  15
ENDBRANCH   1   2
BRANCH   1  18
ATOM     17  O   UNL     1       7.257   1.252   0.147  0.00  0.00    +0.000 OA
ATOM     18  C   UNL     1       6.273   1.928   0.377  0.00  0.00    +0.000 C 
BRANCH  18  19
ATOM     19  C   UNL     1       6.360   3.166   1.180  0.00  0.00    +0.000 C 
ATOM     20  C   UNL     1       5.379   4.018   1.522  0.00  0.00    +0.000 C 
BRANCH  20  21
ATOM     21  C   UNL     1       5.510   5.233   2.354  0.00  0.00    +0.000 A 
ATOM     22  C   UNL     1       4.757   6.378   2.073  0.00  0.00    +0.000 A 
ATOM     23  C   UNL     1       6.389   5.232   3.440  0.00  0.00    +0.000 A 
ATOM     24  C   UNL     1       4.881   7.511   2.882  0.00  0.00    +0.000 A 
ATOM     25  C   UNL     1       6.522   6.363   4.240  0.00  0.00    +0.000 A 
ATOM     26  C   UNL     1       5.764   7.495   3.962  0.00  0.00    +0.000 A 
BRANCH  26  27
ATOM     27  O   UNL     1       5.860   8.598   4.747  0.00  0.00    +0.000 OA
ATOM     28  H   UNL     1       5.197   9.219   4.386  0.00  0.00    +0.000 HD
ENDBRANCH  26  27
BRANCH  24  29
ATOM     29  O   UNL     1       4.151   8.647   2.644  0.00  0.00    +0.000 OA
ATOM     30  H   UNL     1       3.577   8.540   1.866  0.00  0.00    +0.000 HD
ENDBRANCH  24  29
ENDBRANCH  20  21
ENDBRANCH  18  19
ENDBRANCH   1  18
TORSDOF 10
