REMARK  Name = opt04.pdb
REMARK  1 active torsions:
REMARK  status: ('A' for Active; 'I' for Inactive)
REMARK    1  A    between atoms: C_2  and  CA_4
REMARK                            x       y       z     vdW  Elec       q    Type
REMARK                         _______ _______ _______ _____ _____    ______ ____
ROOT
ATOM      1  CA  UNL     1       3.138   1.243   0.111  0.00  0.00    +0.000 A 
ATOM      2  N   UNL     1       2.737   2.216   0.969  0.00  0.00    +0.000 NA
ATOM      3  C   UNL     1       4.244   1.421  -0.726  0.00  0.00    +0.000 A 
ATOM      4  C   UNL     1       3.420   3.383   1.015  0.00  0.00    +0.000 A 
ATOM      5  C   UNL     1       4.950   2.619  -0.684  0.00  0.00    +0.000 A 
ATOM      6  C   UNL     1       4.536   3.616   0.197  0.00  0.00    +0.000 A 
ATOM      7  C   UNL     1       3.013   4.387   1.896  0.00  0.00    +0.000 A 
ATOM      8  C   UNL     1       5.223   4.829   0.262  0.00  0.00    +0.000 A 
ATOM      9  C   UNL     1       3.699   5.598   1.963  0.00  0.00    +0.000 A 
ATOM     10  C   UNL     1       4.804   5.820   1.146  0.00  0.00    +0.000 A 
ENDROOT
BRANCH   1  12
ATOM     11  O   UNL     1       1.407  -0.179   0.813  0.00  0.00    +0.000 OA
ATOM     12  C   UNL     1       2.364  -0.050   0.074  0.00  0.00    +0.000 C 
ATOM     13  OXT UNL     1       2.731  -0.916  -0.698  0.00  0.00    +0.000 OA
ENDBRANCH   1  12
TORSDOF 1
