REMARK  Name = opt08.pdb
REMARK  4 active torsions:
REMARK  status: ('A' for Active; 'I' for Inactive)
REMARK    1  A    between atoms: C_2  and  C_4
REMARK    2  A    between atoms: C_5  and  C_6
REMARK    3  A    between atoms: C_9  and  O_11
REMARK    4  A    between atoms: C_12  and  O_13
REMARK                            x       y       z     vdW  Elec       q    Type
REMARK                         _______ _______ _______ _____ _____    ______ ____
ROOT
ATOM      1  C   UNL     1       5.374   2.355  -1.039  0.00  0.00    +0.000 A 
ATOM      2  C   UNL     1       5.066   3.691  -0.769  0.00  0.00    +0.000 A 
ATOM      3  C   UNL     1       6.476   2.048  -1.840  0.00  0.00    +0.000 A 
ATOM      4  C   UNL     1       5.856   4.711  -1.298  0.00  0.00    +0.000 A 
ATOM      5  C   UNL     1       7.271   3.066  -2.363  0.00  0.00    +0.000 A 
ATOM      6  C   UNL     1       6.959   4.396  -2.088  0.00  0.00    +0.000 A 
ENDROOT
BRANCH   1   8
ATOM      7  C   UNL     1       3.227   1.239  -0.279  0.00  0.00    +0.000 C 
ATOM      8  C   UNL     1       4.555   1.266  -0.467  0.00  0.00    +0.000 C 
BRANCH   7  10
ATOM      9  O   UNL     1       1.241   0.317   0.417  0.00  0.00    +0.000 OA
ATOM     10  C   UNL     1       2.437   0.136   0.308  0.00  0.00    +0.000 C 
ATOM     11  O   UNL     1       3.024  -0.870   0.651  0.00  0.00    +0.000 OA
ENDBRANCH   7  10
ENDBRANCH   1   8
BRANCH   4  12
ATOM     12  O   UNL     1       5.564   6.024  -1.053  0.00  0.00    +0.000 OA
ATOM     13  H   UNL     1       4.728   6.076  -0.557  0.00  0.00    +0.000 HD
ENDBRANCH   4  12
BRANCH   6  14
ATOM     14  O   UNL     1       7.720   5.413  -2.577  0.00  0.00    +0.000 OA
ATOM     15  H   UNL     1       7.302   6.228  -2.228  0.00  0.00    +0.000 HD
ENDBRANCH   6  14
TORSDOF 4
