REMARK  Name = opt02.pdb
REMARK  12 active torsions:
REMARK  status: ('A' for Active; 'I' for Inactive)
REMARK    1  A    between atoms: C_5  and  O_9
REMARK    2  A    between atoms: C_8  and  C_15
REMARK    3  A    between atoms: C_10  and  C_17
REMARK    4  A    between atoms: C_12  and  O_19
REMARK    5  A    between atoms: C_14  and  C_21
REMARK    6  A    between atoms: C_16  and  O_22
REMARK    7  A    between atoms: C_20  and  O_25
REMARK    8  A    between atoms: C_24  and  O_29
REMARK    9  A    between atoms: C_28  and  C_32
REMARK   10  A    between atoms: C_30  and  O_33
REMARK   11  A    between atoms: C_31  and  O_34
REMARK   12  A    between atoms: C_32  and  O_35
REMARK                            x       y       z     vdW  Elec       q    Type
REMARK                         _______ _______ _______ _____ _____    ______ ____
ROOT
ATOM      1  O   UNL     1       0.991  -0.106   0.619  0.00  0.00    +0.000 OA
ATOM      2  C   UNL     1       2.143  -0.191   0.242  0.00  0.00    +0.000 C 
ATOM      3  C   UNL     1       2.931   1.080  -0.010  0.00  0.00    +0.000 A 
ATOM      4  C   UNL     1       2.812  -1.542   0.059  0.00  0.00    +0.000 A 
ATOM      5  C   UNL     1       2.318   2.353   0.014  0.00  0.00    +0.000 A 
ATOM      6  C   UNL     1       4.313   1.013  -0.223  0.00  0.00    +0.000 A 
ATOM      7  C   UNL     1       4.203  -1.546  -0.063  0.00  0.00    +0.000 A 
ATOM      8  C   UNL     1       2.114  -2.785   0.031  0.00  0.00    +0.000 A 
ATOM      9  C   UNL     1       3.047   3.529  -0.237  0.00  0.00    +0.000 A 
ATOM     10  C   UNL     1       5.020  -0.301  -0.136  0.00  0.00    +0.000 C 
ATOM     11  C   UNL     1       5.024   2.181  -0.545  0.00  0.00    +0.000 A 
ATOM     12  C   UNL     1       4.889  -2.741  -0.173  0.00  0.00    +0.000 A 
ATOM     13  C   UNL     1       2.833  -4.022   0.001  0.00  0.00    +0.000 A 
ATOM     14  C   UNL     1       0.583  -2.812  -0.106  0.00  0.00    +0.000 C 
ATOM     15  C   UNL     1       4.368   3.397  -0.668  0.00  0.00    +0.000 A 
ATOM     16  O   UNL     1       6.234  -0.376  -0.191  0.00  0.00    +0.000 OA
ATOM     17  C   UNL     1       4.233  -3.948  -0.164  0.00  0.00    +0.000 A 
ENDROOT
BRANCH   9  18
ATOM     18  C   UNL     1       2.407   4.864   0.202  0.00  0.00    +0.000 C 
ATOM     19  O   UNL     1       2.335   4.829   1.657  0.00  0.00    +0.000 OA
ATOM     20  C   UNL     1       3.004   6.253  -0.169  0.00  0.00    +0.000 C 
ATOM     21  C   UNL     1       3.619   4.872   2.338  0.00  0.00    +0.000 C 
ATOM     22  C   UNL     1       4.294   6.643   0.621  0.00  0.00    +0.000 C 
ATOM     23  C   UNL     1       4.256   6.264   2.118  0.00  0.00    +0.000 C 
BRANCH  20  24
ATOM     24  O   UNL     1       1.979   7.204   0.151  0.00  0.00    +0.000 OA
ATOM     25  H   UNL     1       1.532   6.873   0.959  0.00  0.00    +0.000 HD
ENDBRANCH  20  24
BRANCH  22  26
ATOM     26  O   UNL     1       4.534   8.043   0.488  0.00  0.00    +0.000 OA
ATOM     27  H   UNL     1       3.661   8.450   0.364  0.00  0.00    +0.000 HD
ENDBRANCH  22  26
BRANCH  23  28
ATOM     28  O   UNL     1       5.617   6.220   2.557  0.00  0.00    +0.000 OA
ATOM     29  H   UNL     1       6.152   5.917   1.793  0.00  0.00    +0.000 HD
ENDBRANCH  23  28
BRANCH  21  30
ATOM     30  C   UNL     1       3.406   4.531   3.828  0.00  0.00    +0.000 C 
BRANCH  30  31
ATOM     31  O   UNL     1       2.304   5.261   4.366  0.00  0.00    +0.000 OA
ATOM     32  H   UNL     1       1.506   4.942   3.903  0.00  0.00    +0.000 HD
ENDBRANCH  30  31
ENDBRANCH  21  30
ENDBRANCH   9  18
BRANCH  13  33
ATOM     33  C   UNL     1       2.155  -5.389   0.179  0.00  0.00    +0.000 C 
ATOM     34  O   UNL     1       0.968  -5.469   0.422  0.00  0.00    +0.000 OA
ATOM     35  O   UNL     1       2.827  -6.400   0.173  0.00  0.00    +0.000 OA
ENDBRANCH  13  33
BRANCH  11  36
ATOM     36  O   UNL     1       6.384   2.194  -0.713  0.00  0.00    +0.000 OA
ATOM     37  H   UNL     1       6.746   1.368  -0.311  0.00  0.00    +0.000 HD
ENDBRANCH  11  36
BRANCH   5  38
ATOM     38  O   UNL     1       0.976   2.484   0.260  0.00  0.00    +0.000 OA
ATOM     39  H   UNL     1       0.590   1.587   0.372  0.00  0.00    +0.000 HD
ENDBRANCH   5  38
BRANCH  15  40
ATOM     40  O   UNL     1       5.088   4.417  -1.204  0.00  0.00    +0.000 OA
ATOM     41  H   UNL     1       5.981   4.059  -1.389  0.00  0.00    +0.000 HD
ENDBRANCH  15  40
BRANCH  17  42
ATOM     42  O   UNL     1       5.075  -5.003  -0.333  0.00  0.00    +0.000 OA
ATOM     43  H   UNL     1       5.532  -5.128   0.508  0.00  0.00    +0.000 HD
ENDBRANCH  17  42
TORSDOF 11
