REMARK  Name = opt05.pdb
REMARK  2 active torsions:
REMARK  status: ('A' for Active; 'I' for Inactive)
REMARK    1  A    between atoms: C_2  and  C_4
REMARK    2  A    between atoms: C_5  and  C_6
REMARK                            x       y       z     vdW  Elec       q    Type
REMARK                         _______ _______ _______ _____ _____    ______ ____
ROOT
ATOM      1  C   UNL     1       5.199  -2.597  -0.605  0.00  0.00    +0.000 A 
ATOM      2  C   UNL     1       4.842  -3.428  -1.670  0.00  0.00    +0.000 A 
ATOM      3  C   UNL     1       6.338  -2.898   0.145  0.00  0.00    +0.000 A 
ATOM      4  C   UNL     1       5.611  -4.548  -1.978  0.00  0.00    +0.000 A 
ATOM      5  C   UNL     1       7.111  -4.014  -0.167  0.00  0.00    +0.000 A 
ATOM      6  C   UNL     1       6.748  -4.841  -1.228  0.00  0.00    +0.000 A 
ENDROOT
BRANCH   1   8
ATOM      7  C   UNL     1       3.085  -1.194  -0.450  0.00  0.00    +0.000 C 
ATOM      8  C   UNL     1       4.403  -1.391  -0.287  0.00  0.00    +0.000 C 
BRANCH   7  10
ATOM      9  O   UNL     1       1.135   0.023  -0.389  0.00  0.00    +0.000 OA
ATOM     10  C   UNL     1       2.323   0.037  -0.144  0.00  0.00    +0.000 C 
ATOM     11  O   UNL     1       2.926   0.985   0.319  0.00  0.00    +0.000 OA
ENDBRANCH   7  10
ENDBRANCH   1   8
TORSDOF 2
