REMARK  Name = opt03.pdb
REMARK  0 active torsions:
REMARK  status: ('A' for Active; 'I' for Inactive)
REMARK                            x       y       z     vdW  Elec       q    Type
REMARK                         _______ _______ _______ _____ _____    ______ ____
ROOT
ATOM      1  O   UNL     1      -3.226   0.620  -0.057  0.00  0.00    +0.000 OA
ATOM      2  C   UNL     1      -2.099   0.171  -0.054  0.00  0.00    +0.000 A 
ATOM      3  O   UNL     1      -1.014   0.986  -0.042  0.00  0.00    +0.000 OA
ATOM      4  C   UNL     1      -1.794  -1.270  -0.058  0.00  0.00    +0.000 A 
ATOM      5  C   UNL     1       0.296   0.553  -0.054  0.00  0.00    +0.000 A 
ATOM      6  C   UNL     1      -0.449  -1.769  -0.030  0.00  0.00    +0.000 A 
ATOM      7  C   UNL     1       0.595  -0.854  -0.012  0.00  0.00    +0.000 A 
ATOM      8  C   UNL     1       1.358   1.519  -0.030  0.00  0.00    +0.000 A 
ATOM      9  C   UNL     1       1.928  -1.258   0.044  0.00  0.00    +0.000 A 
ATOM     10  C   UNL     1       2.673   1.062   0.026  0.00  0.00    +0.000 A 
ATOM     11  C   UNL     1       2.953  -0.307   0.063  0.00  0.00    +0.000 A 
ENDROOT
TORSDOF 0
