REMARK  Name = opt07.pdb
REMARK  3 active torsions:
REMARK  status: ('A' for Active; 'I' for Inactive)
REMARK    1  A    between atoms: N_3  and  C_6
REMARK    2  A    between atoms: N_4  and  C_8
REMARK    3  A    between atoms: N_12  and  C_14
REMARK                            x       y       z     vdW  Elec       q    Type
REMARK                         _______ _______ _______ _____ _____    ______ ____
ROOT
ATOM      1  O   UNL     1       3.041   0.439   0.007  0.00  0.00    +0.000 OA
ATOM      2  C   UNL     1       1.843   0.227   0.008  0.00  0.00    +0.000 A 
ATOM      3  N   UNL     1       1.330  -1.042   0.014  0.00  0.00    +0.000 N 
ATOM      4  N   UNL     1       0.948   1.257   0.005  0.00  0.00    +0.000 N 
ATOM      5  C   UNL     1       0.003  -1.363   0.016  0.00  0.00    +0.000 A 
ATOM      6  C   UNL     1       2.272  -2.190   0.022  0.00  0.00    +0.000 C 
ATOM      7  C   UNL     1      -0.427   1.081   0.001  0.00  0.00    +0.000 A 
ATOM      8  C   UNL     1       1.396   2.662   0.007  0.00  0.00    +0.000 C 
ATOM      9  O   UNL     1      -0.383  -2.519   0.024  0.00  0.00    +0.000 OA
ATOM     10  C   UNL     1      -0.907  -0.203   0.008  0.00  0.00    +0.000 A 
ATOM     11  N   UNL     1      -1.496   1.391  -0.002  0.00  0.00    +0.000 NA
ATOM     12  N   UNL     1      -2.248   0.038   0.009  0.00  0.00    +0.000 N 
ATOM     13  C   UNL     1      -2.608   1.360  -0.001  0.00  0.00    +0.000 A 
ATOM     14  C   UNL     1      -3.257  -1.028   0.029  0.00  0.00    +0.000 C 
ENDROOT
TORSDOF 0
