REMARK  Name = opt19.pdb
REMARK  4 active torsions:
REMARK  status: ('A' for Active; 'I' for Inactive)
REMARK    1  A    between atoms: C_2  and  O_3
REMARK    2  A    between atoms: C_2  and  C_4
REMARK    3  A    between atoms: O_3  and  C_5
REMARK    4  A    between atoms: C_10  and  O_11
REMARK                            x       y       z     vdW  Elec       q    Type
REMARK                         _______ _______ _______ _____ _____    ______ ____
ROOT
ATOM      1  C   UNL     1       3.023   1.142  -0.374  0.00  0.00    +0.000 A 
ATOM      2  C   UNL     1       2.756   2.374   0.230  0.00  0.00    +0.000 A 
ATOM      3  C   UNL     1       4.028   1.067  -1.346  0.00  0.00    +0.000 A 
ATOM      4  C   UNL     1       3.478   3.512  -0.129  0.00  0.00    +0.000 A 
ATOM      5  C   UNL     1       4.754   2.203  -1.701  0.00  0.00    +0.000 A 
ATOM      6  C   UNL     1       4.479   3.426  -1.095  0.00  0.00    +0.000 A 
ENDROOT
BRANCH   1   8
ATOM      7  O   UNL     1       1.381  -0.038   0.888  0.00  0.00    +0.000 OA
ATOM      8  C   UNL     1       2.238  -0.076   0.026  0.00  0.00    +0.000 C 
BRANCH   8   9
ATOM      9  O   UNL     1       2.544  -1.209  -0.650  0.00  0.00    +0.000 OA
ATOM     10  C   UNL     1       1.878  -2.445  -0.295  0.00  0.00    +0.000 C 
ENDBRANCH   8   9
ENDBRANCH   1   8
BRANCH   6  11
ATOM     11  O   UNL     1       5.193   4.532  -1.449  0.00  0.00    +0.000 OA
ATOM     12  H   UNL     1       4.887   5.305  -0.941  0.00  0.00    +0.000 HD
ENDBRANCH   6  11
TORSDOF 3
