REMARK  Name = opt10.pdb
REMARK  8 active torsions:
REMARK  status: ('A' for Active; 'I' for Inactive)
REMARK    1  A    between atoms: C_10  and  O_12
REMARK    2  A    between atoms: C_11  and  O_13
REMARK    3  A    between atoms: O_13  and  C_14
REMARK    4  A    between atoms: C_16  and  O_18
REMARK    5  A    between atoms: C_17  and  C_21
REMARK    6  A    between atoms: C_19  and  O_22
REMARK    7  A    between atoms: C_20  and  O_23
REMARK    8  A    between atoms: C_21  and  O_24
REMARK                            x       y       z     vdW  Elec       q    Type
REMARK                         _______ _______ _______ _____ _____    ______ ____
ROOT
ATOM      1  C   UNL     1      -4.744  -1.039   0.144  0.00  0.00    +0.000 C 
ATOM      2  O   UNL     1      -4.679  -0.349   1.419  0.00  0.00    +0.000 OA
ATOM      3  C   UNL     1      -5.503  -0.160  -0.880  0.00  0.00    +0.000 C 
ATOM      4  C   UNL     1      -4.004   0.937   1.400  0.00  0.00    +0.000 C 
ATOM      5  C   UNL     1      -4.929   1.281  -0.928  0.00  0.00    +0.000 C 
ATOM      6  C   UNL     1      -4.814   1.892   0.493  0.00  0.00    +0.000 C 
ENDROOT
BRANCH   3   7
ATOM      7  O   UNL     1      -6.884  -0.127  -0.509  0.00  0.00    +0.000 OA
ATOM      8  H   UNL     1      -6.919   0.042   0.448  0.00  0.00    +0.000 HD
ENDBRANCH   3   7
BRANCH   5   9
ATOM      9  O   UNL     1      -5.775   2.102  -1.744  0.00  0.00    +0.000 OA
ATOM     10  H   UNL     1      -6.702   1.917  -1.494  0.00  0.00    +0.000 HD
ENDBRANCH   5   9
BRANCH   6  11
ATOM     11  O   UNL     1      -4.178   3.176   0.434  0.00  0.00    +0.000 OA
ATOM     12  H   UNL     1      -3.319   3.096  -0.022  0.00  0.00    +0.000 HD
ENDBRANCH   6  11
BRANCH   1  13
ATOM     13  O   UNL     1      -3.420  -1.310  -0.360  0.00  0.00    +0.000 OA
BRANCH  13  24
ATOM     14  O   UNL     1       1.537  -4.918   4.191  0.00  0.00    +0.000 OA
ATOM     15  C   UNL     1       0.576  -4.433   3.633  0.00  0.00    +0.000 A 
ATOM     16  O   UNL     1       0.716  -3.698   2.501  0.00  0.00    +0.000 OA
ATOM     17  C   UNL     1      -0.810  -4.593   4.101  0.00  0.00    +0.000 A 
ATOM     18  C   UNL     1      -0.323  -3.094   1.821  0.00  0.00    +0.000 A 
ATOM     19  C   UNL     1      -1.926  -4.013   3.408  0.00  0.00    +0.000 A 
ATOM     20  C   UNL     1      -1.678  -3.267   2.263  0.00  0.00    +0.000 A 
ATOM     21  C   UNL     1      -0.050  -2.416   0.588  0.00  0.00    +0.000 A 
ATOM     22  C   UNL     1      -2.708  -2.675   1.534  0.00  0.00    +0.000 A 
ATOM     23  C   UNL     1      -1.113  -1.842  -0.110  0.00  0.00    +0.000 A 
ATOM     24  C   UNL     1      -2.425  -1.947   0.368  0.00  0.00    +0.000 A 
BRANCH  23  25
ATOM     25  O   UNL     1      -0.868  -1.178  -1.275  0.00  0.00    +0.000 OA
ATOM     26  H   UNL     1      -0.012  -1.468  -1.628  0.00  0.00    +0.000 HD
ENDBRANCH  23  25
ENDBRANCH  13  24
ENDBRANCH   1  13
BRANCH   4  27
ATOM     27  C   UNL     1      -3.900   1.434   2.855  0.00  0.00    +0.000 C 
BRANCH  27  28
ATOM     28  O   UNL     1      -3.130   0.498   3.617  0.00  0.00    +0.000 OA
ATOM     29  H   UNL     1      -2.780  -0.174   3.003  0.00  0.00    +0.000 HD
ENDBRANCH  27  28
ENDBRANCH   4  27
TORSDOF 8
