REMARK  Name = opt12.pdb
REMARK  21 active torsions:
REMARK  status: ('A' for Active; 'I' for Inactive)
REMARK    1  A    between atoms: C_2  and  O_3
REMARK    2  A    between atoms: C_2  and  C_4
REMARK    3  A    between atoms: O_3  and  C_5
REMARK    4  A    between atoms: C_9  and  O_13
REMARK    5  A    between atoms: C_10  and  O_15
REMARK    6  A    between atoms: C_11  and  O_17
REMARK    7  A    between atoms: C_12  and  C_19
REMARK    8  A    between atoms: C_14  and  O_20
REMARK    9  A    between atoms: C_16  and  O_21
REMARK   10  A    between atoms: C_18  and  O_22
REMARK   11  A    between atoms: C_19  and  O_23
REMARK   12  A    between atoms: O_20  and  C_24
REMARK   13  A    between atoms: O_23  and  C_25
REMARK   14  A    between atoms: C_24  and  C_27
REMARK   15  A    between atoms: C_25  and  C_29
REMARK   16  A    between atoms: C_34  and  O_38
REMARK   17  A    between atoms: C_35  and  O_40
REMARK   18  A    between atoms: C_36  and  O_41
REMARK   19  A    between atoms: C_37  and  O_43
REMARK   20  A    between atoms: C_39  and  O_44
REMARK   21  A    between atoms: C_42  and  O_45
REMARK                            x       y       z     vdW  Elec       q    Type
REMARK                         _______ _______ _______ _____ _____    ______ ____
ROOT
ATOM      1  C   UNL     1       4.332  -1.138   0.481  0.00  0.00    +0.000 C 
ATOM      2  O   UNL     1       4.948   0.161   0.648  0.00  0.00    +0.000 OA
ATOM      3  C   UNL     1       4.828  -2.054   1.616  0.00  0.00    +0.000 C 
ATOM      4  C   UNL     1       4.626   0.880   1.866  0.00  0.00    +0.000 C 
ATOM      5  C   UNL     1       4.468  -1.420   2.984  0.00  0.00    +0.000 C 
ATOM      6  C   UNL     1       5.009   0.023   3.107  0.00  0.00    +0.000 C 
ENDROOT
BRANCH   3   7
ATOM      7  O   UNL     1       6.246  -2.219   1.486  0.00  0.00    +0.000 OA
ATOM      8  H   UNL     1       6.633  -1.359   1.230  0.00  0.00    +0.000 HD
ENDBRANCH   3   7
BRANCH   6   9
ATOM      9  O   UNL     1       4.466   0.595   4.308  0.00  0.00    +0.000 OA
ATOM     10  H   UNL     1       3.496   0.489   4.302  0.00  0.00    +0.000 HD
ENDBRANCH   6   9
BRANCH   1  11
ATOM     11  O   UNL     1       2.884  -1.029   0.547  0.00  0.00    +0.000 OA
BRANCH  11  13
ATOM     12  O   UNL     1       2.597  -2.080  -1.430  0.00  0.00    +0.000 OA
ATOM     13  C   UNL     1       2.123  -1.572  -0.432  0.00  0.00    +0.000 C 
BRANCH  13  14
ATOM     14  C   UNL     1       0.642  -1.535  -0.196  0.00  0.00    +0.000 A 
ATOM     15  C   UNL     1      -0.215  -2.075  -1.160  0.00  0.00    +0.000 A 
ATOM     16  C   UNL     1       0.097  -0.993   0.975  0.00  0.00    +0.000 A 
ATOM     17  C   UNL     1      -1.590  -2.095  -0.948  0.00  0.00    +0.000 A 
ATOM     18  C   UNL     1      -1.284  -1.006   1.183  0.00  0.00    +0.000 A 
ATOM     19  C   UNL     1      -2.124  -1.568   0.222  0.00  0.00    +0.000 A 
BRANCH  17  20
ATOM     20  O   UNL     1      -2.424  -2.648  -1.873  0.00  0.00    +0.000 OA
ATOM     21  H   UNL     1      -1.901  -2.930  -2.637  0.00  0.00    +0.000 HD
ENDBRANCH  17  20
BRANCH  18  22
ATOM     22  O   UNL     1      -1.814  -0.497   2.331  0.00  0.00    +0.000 OA
ATOM     23  H   UNL     1      -1.216  -0.665   3.070  0.00  0.00    +0.000 HD
ENDBRANCH  18  22
BRANCH  19  24
ATOM     24  O   UNL     1      -3.466  -1.658   0.413  0.00  0.00    +0.000 OA
ATOM     25  H   UNL     1      -3.799  -2.165  -0.353  0.00  0.00    +0.000 HD
ENDBRANCH  19  24
ENDBRANCH  13  14
ENDBRANCH  11  13
ENDBRANCH   1  11
BRANCH   5  26
ATOM     26  O   UNL     1       5.034  -2.208   4.066  0.00  0.00    +0.000 OA
BRANCH  26  27
ATOM     27  C   UNL     1       4.462  -3.377   4.430  0.00  0.00    +0.000 C 
ATOM     28  O   UNL     1       3.408  -3.768   3.964  0.00  0.00    +0.000 OA
BRANCH  27  29
ATOM     29  C   UNL     1       5.225  -4.160   5.457  0.00  0.00    +0.000 A 
ATOM     30  C   UNL     1       4.718  -5.377   5.925  0.00  0.00    +0.000 A 
ATOM     31  C   UNL     1       6.453  -3.698   5.944  0.00  0.00    +0.000 A 
ATOM     32  C   UNL     1       5.438  -6.128   6.852  0.00  0.00    +0.000 A 
ATOM     33  C   UNL     1       7.174  -4.450   6.870  0.00  0.00    +0.000 A 
ATOM     34  C   UNL     1       6.666  -5.667   7.316  0.00  0.00    +0.000 A 
BRANCH  34  35
ATOM     35  O   UNL     1       7.356  -6.437   8.197  0.00  0.00    +0.000 OA
ATOM     36  H   UNL     1       6.817  -7.240   8.298  0.00  0.00    +0.000 HD
ENDBRANCH  34  35
BRANCH  32  37
ATOM     37  O   UNL     1       4.960  -7.323   7.311  0.00  0.00    +0.000 OA
ATOM     38  H   UNL     1       4.077  -7.490   6.945  0.00  0.00    +0.000 HD
ENDBRANCH  32  37
BRANCH  33  39
ATOM     39  O   UNL     1       8.379  -4.006   7.325  0.00  0.00    +0.000 OA
ATOM     40  H   UNL     1       8.591  -3.169   6.895  0.00  0.00    +0.000 HD
ENDBRANCH  33  39
ENDBRANCH  27  29
ENDBRANCH  26  27
ENDBRANCH   5  26
BRANCH   4  41
ATOM     41  C   UNL     1       5.422   2.204   1.780  0.00  0.00    +0.000 C 
BRANCH  41  42
ATOM     42  O   UNL     1       5.146   3.060   2.914  0.00  0.00    +0.000 OA
BRANCH  42  43
ATOM     43  C   UNL     1       3.935   3.644   3.045  0.00  0.00    +0.000 C 
ATOM     44  O   UNL     1       3.083   3.603   2.177  0.00  0.00    +0.000 OA
BRANCH  43  45
ATOM     45  C   UNL     1       3.707   4.332   4.355  0.00  0.00    +0.000 A 
ATOM     46  C   UNL     1       2.494   4.983   4.586  0.00  0.00    +0.000 A 
ATOM     47  C   UNL     1       4.685   4.320   5.358  0.00  0.00    +0.000 A 
ATOM     48  C   UNL     1       2.264   5.626   5.799  0.00  0.00    +0.000 A 
ATOM     49  C   UNL     1       4.454   4.962   6.574  0.00  0.00    +0.000 A 
ATOM     50  C   UNL     1       3.244   5.618   6.787  0.00  0.00    +0.000 A 
BRANCH  49  51
ATOM     51  O   UNL     1       5.400   4.939   7.555  0.00  0.00    +0.000 OA
ATOM     52  H   UNL     1       6.102   4.321   7.314  0.00  0.00    +0.000 HD
ENDBRANCH  49  51
BRANCH  50  53
ATOM     53  O   UNL     1       2.983   6.254   7.958  0.00  0.00    +0.000 OA
ATOM     54  H   UNL     1       2.092   6.624   7.838  0.00  0.00    +0.000 HD
ENDBRANCH  50  53
BRANCH  48  55
ATOM     55  O   UNL     1       1.077   6.259   6.031  0.00  0.00    +0.000 OA
ATOM     56  H   UNL     1       0.492   6.131   5.267  0.00  0.00    +0.000 HD
ENDBRANCH  48  55
ENDBRANCH  43  45
ENDBRANCH  42  43
ENDBRANCH  41  42
ENDBRANCH   4  41
TORSDOF 21
