REMARK  Name = opt13.pdb
REMARK  17 active torsions:
REMARK  status: ('A' for Active; 'I' for Inactive)
REMARK    1  A    between atoms: C_6  and  O_10
REMARK    2  A    between atoms: C_7  and  C_12
REMARK    3  A    between atoms: C_13  and  O_16
REMARK    4  A    between atoms: O_16  and  C_19
REMARK    5  A    between atoms: C_17  and  O_20
REMARK    6  A    between atoms: C_21  and  O_24
REMARK    7  A    between atoms: C_23  and  O_26
REMARK    8  A    between atoms: O_24  and  C_28
REMARK    9  A    between atoms: C_25  and  C_30
REMARK   10  A    between atoms: C_27  and  O_31
REMARK   11  A    between atoms: C_29  and  O_32
REMARK   12  A    between atoms: C_30  and  O_33
REMARK   13  A    between atoms: O_33  and  C_34
REMARK   14  A    between atoms: C_36  and  O_38
REMARK   15  A    between atoms: C_37  and  C_41
REMARK   16  A    between atoms: C_39  and  O_42
REMARK   17  A    between atoms: C_40  and  O_43
REMARK                            x       y       z     vdW  Elec       q    Type
REMARK                         _______ _______ _______ _____ _____    ______ ____
ROOT
ATOM      1  C   UNL     1      -4.623  -1.975  -0.052  0.00  0.00    +0.000 C 
ATOM      2  O   UNL     1      -4.742  -1.229   1.185  0.00  0.00    +0.000 OA
ATOM      3  C   UNL     1      -5.273  -1.167  -1.195  0.00  0.00    +0.000 C 
ATOM      4  C   UNL     1      -4.104   0.078   1.183  0.00  0.00    +0.000 C 
ATOM      5  C   UNL     1      -4.722   0.279  -1.259  0.00  0.00    +0.000 C 
ATOM      6  C   UNL     1      -4.789   0.969   0.124  0.00  0.00    +0.000 C 
ENDROOT
BRANCH   3   7
ATOM      7  O   UNL     1      -6.684  -1.140  -0.956  0.00  0.00    +0.000 OA
ATOM      8  H   UNL     1      -6.808  -0.981  -0.002  0.00  0.00    +0.000 HD
ENDBRANCH   3   7
BRANCH   5   9
ATOM      9  O   UNL     1      -5.508   1.018  -2.195  0.00  0.00    +0.000 OA
ATOM     10  H   UNL     1      -6.436   0.768  -2.018  0.00  0.00    +0.000 HD
ENDBRANCH   5   9
BRANCH   6  11
ATOM     11  O   UNL     1      -4.145   2.249   0.063  0.00  0.00    +0.000 OA
ATOM     12  H   UNL     1      -3.296   2.163  -0.409  0.00  0.00    +0.000 HD
ENDBRANCH   6  11
BRANCH   1  13
ATOM     13  O   UNL     1      -3.231  -2.248  -0.345  0.00  0.00    +0.000 OA
BRANCH  13  24
ATOM     14  O   UNL     1       1.176  -5.601   3.019  0.00  0.00    +0.000 OA
ATOM     15  C   UNL     1      -0.028  -5.710   2.874  0.00  0.00    +0.000 C 
ATOM     16  C   UNL     1      -0.854  -4.768   2.032  0.00  0.00    +0.000 A 
ATOM     17  C   UNL     1      -0.757  -6.821   3.595  0.00  0.00    +0.000 C 
ATOM     18  C   UNL     1      -2.229  -5.000   1.913  0.00  0.00    +0.000 A 
ATOM     19  C   UNL     1      -0.294  -3.673   1.356  0.00  0.00    +0.000 A 
ATOM     20  C   UNL     1      -2.020  -7.254   2.824  0.00  0.00    +0.000 C 
ATOM     21  O   UNL     1      -2.817  -6.082   2.538  0.00  0.00    +0.000 OA
ATOM     22  C   UNL     1      -3.032  -4.161   1.146  0.00  0.00    +0.000 A 
ATOM     23  C   UNL     1      -1.099  -2.845   0.569  0.00  0.00    +0.000 A 
ATOM     24  C   UNL     1      -2.470  -3.079   0.463  0.00  0.00    +0.000 A 
BRANCH  20  25
ATOM     25  C   UNL     1      -2.865  -8.229   3.626  0.00  0.00    +0.000 A 
ATOM     26  C   UNL     1      -3.427  -7.824   4.835  0.00  0.00    +0.000 A 
ATOM     27  C   UNL     1      -3.062  -9.533   3.181  0.00  0.00    +0.000 A 
ATOM     28  C   UNL     1      -4.154  -8.716   5.621  0.00  0.00    +0.000 A 
ATOM     29  C   UNL     1      -3.801 -10.428   3.952  0.00  0.00    +0.000 A 
ATOM     30  C   UNL     1      -4.345 -10.039   5.177  0.00  0.00    +0.000 A 
BRANCH  28  31
ATOM     31  O   UNL     1      -4.628  -8.245   6.810  0.00  0.00    +0.000 OA
ATOM     32  H   UNL     1      -4.314  -7.331   6.935  0.00  0.00    +0.000 HD
ENDBRANCH  28  31
BRANCH  30  33
ATOM     33  O   UNL     1      -5.034 -11.025   5.870  0.00  0.00    +0.000 OA
ATOM     34  C   UNL     1      -5.602 -10.883   7.192  0.00  0.00    +0.000 C 
ENDBRANCH  30  33
ENDBRANCH  20  25
BRANCH  19  35
ATOM     35  O   UNL     1       1.038  -3.396   1.454  0.00  0.00    +0.000 OA
ATOM     36  H   UNL     1       1.433  -4.061   2.068  0.00  0.00    +0.000 HD
ENDBRANCH  19  35
ENDBRANCH  13  24
ENDBRANCH   1  13
BRANCH   4  37
ATOM     37  C   UNL     1      -4.221   0.662   2.599  0.00  0.00    +0.000 C 
BRANCH  37  38
ATOM     38  O   UNL     1      -3.441  -0.193   3.458  0.00  0.00    +0.000 OA
BRANCH  38  39
ATOM     39  C   UNL     1      -3.332   0.223   4.832  0.00  0.00    +0.000 C 
ATOM     40  O   UNL     1      -4.623   0.204   5.502  0.00  0.00    +0.000 OA
ATOM     41  C   UNL     1      -2.379  -0.768   5.529  0.00  0.00    +0.000 C 
ATOM     42  C   UNL     1      -5.308  -1.079   5.540  0.00  0.00    +0.000 C 
ATOM     43  C   UNL     1      -3.026  -2.173   5.568  0.00  0.00    +0.000 C 
ATOM     44  C   UNL     1      -4.409  -2.116   6.259  0.00  0.00    +0.000 C 
ATOM     45  C   UNL     1      -6.648  -0.870   6.272  0.00  0.00    +0.000 C 
BRANCH  44  46
ATOM     46  O   UNL     1      -5.017  -3.411   6.226  0.00  0.00    +0.000 OA
ATOM     47  H   UNL     1      -4.900  -3.782   5.334  0.00  0.00    +0.000 HD
ENDBRANCH  44  46
BRANCH  43  48
ATOM     48  O   UNL     1      -2.157  -3.063   6.265  0.00  0.00    +0.000 OA
ATOM     49  H   UNL     1      -1.806  -2.544   7.010  0.00  0.00    +0.000 HD
ENDBRANCH  43  48
BRANCH  41  50
ATOM     50  O   UNL     1      -2.096  -0.298   6.853  0.00  0.00    +0.000 OA
ATOM     51  H   UNL     1      -2.894   0.154   7.189  0.00  0.00    +0.000 HD
ENDBRANCH  41  50
ENDBRANCH  38  39
ENDBRANCH  37  38
ENDBRANCH   4  37
TORSDOF 15
