REMARK  Name = opt15.pdb
REMARK  2 active torsions:
REMARK  status: ('A' for Active; 'I' for Inactive)
REMARK    1  A    between atoms: C_2  and  C_4
REMARK    2  A    between atoms: C_9  and  O_10
REMARK                            x       y       z     vdW  Elec       q    Type
REMARK                         _______ _______ _______ _____ _____    ______ ____
ROOT
ATOM      1  C   UNL     1       3.210   1.036  -0.591  0.00  0.00    +0.000 A 
ATOM      2  C   UNL     1       2.873   2.374  -0.365  0.00  0.00    +0.000 A 
ATOM      3  C   UNL     1       4.351   0.745  -1.347  0.00  0.00    +0.000 A 
ATOM      4  C   UNL     1       3.662   3.401  -0.879  0.00  0.00    +0.000 A 
ATOM      5  C   UNL     1       5.141   1.771  -1.862  0.00  0.00    +0.000 A 
ATOM      6  C   UNL     1       4.800   3.101  -1.627  0.00  0.00    +0.000 A 
ENDROOT
BRANCH   1   8
ATOM      7  O   UNL     1       1.381   0.233   0.623  0.00  0.00    +0.000 OA
ATOM      8  C   UNL     1       2.361  -0.070  -0.028  0.00  0.00    +0.000 C 
ATOM      9  O   UNL     1       2.694  -1.218  -0.247  0.00  0.00    +0.000 OA
ENDBRANCH   1   8
BRANCH   6  10
ATOM     10  O   UNL     1       5.578   4.106  -2.124  0.00  0.00    +0.000 OA
ATOM     11  H   UNL     1       5.214   4.961  -1.836  0.00  0.00    +0.000 HD
ENDBRANCH   6  10
TORSDOF 2
