REMARK  Name = opt18.pdb
REMARK  5 active torsions:
REMARK  status: ('A' for Active; 'I' for Inactive)
REMARK    1  A    between atoms: SI_1  and  O_2
REMARK    2  A    between atoms: SI_1  and  C_3
REMARK    3  A    between atoms: SI_1  and  C_4
REMARK    4  A    between atoms: SI_1  and  C_5
REMARK    5  A    between atoms: O_2  and  C_6
REMARK                            x       y       z     vdW  Elec       q    Type
REMARK                         _______ _______ _______ _____ _____    ______ ____
ROOT
ATOM      1  C   UNL     1       0.284   0.202   2.760  0.00  0.00    +0.000 C 
ATOM      2  C   UNL     1       1.741   0.031   2.860  0.00  0.00    +0.000 C 
ATOM      3  C   UNL     1      -0.526   0.277   3.866  0.00  0.00    +0.000 C 
ATOM      4  O   UNL     1       2.458  -0.033   1.880  0.00  0.00    +0.000 OA
ATOM      5  C   UNL     1       2.300  -0.081   4.252  0.00  0.00    +0.000 A 
ATOM      6  C   UNL     1      -0.013   0.180   5.233  0.00  0.00    +0.000 C 
ATOM      7  C   UNL     1       1.466  -0.015   5.379  0.00  0.00    +0.000 A 
ATOM      8  C   UNL     1       3.677  -0.263   4.431  0.00  0.00    +0.000 A 
ATOM      9  O   UNL     1      -0.749   0.241   6.199  0.00  0.00    +0.000 OA
ATOM     10  C   UNL     1       2.020  -0.137   6.658  0.00  0.00    +0.000 A 
ATOM     11  C   UNL     1       4.218  -0.385   5.708  0.00  0.00    +0.000 A 
ATOM     12  C   UNL     1       3.389  -0.324   6.822  0.00  0.00    +0.000 A 
ENDROOT
BRANCH   1  13
ATOM     13  O   UNL     1      -0.310   0.258   1.508  0.00  0.00    +0.000 OA
BRANCH  13  14
ATOM     14 SI   UNL     1      -0.958   0.181   0.579  0.00  0.00    +0.000 Si
ATOM     15  C   UNL     1      -0.146   0.227  -0.250  0.00  0.00    +0.000 C 
ATOM     16  C   UNL     1      -1.625   1.126   0.701  0.00  0.00    +0.000 C 
ATOM     17  C   UNL     1      -1.474  -0.848   0.743  0.00  0.00    +0.000 C 
ENDBRANCH  13  14
ENDBRANCH   1  13
TORSDOF 2
