REMARK  Name = opt16.pdb
REMARK  2 active torsions:
REMARK  status: ('A' for Active; 'I' for Inactive)
REMARK    1  A    between atoms: C_7  and  C_11
REMARK    2  A    between atoms: C_13  and  O_15
REMARK                            x       y       z     vdW  Elec       q    Type
REMARK                         _______ _______ _______ _____ _____    ______ ____
ROOT
ATOM      1  O   UNL     1      -1.927   1.926   0.070  0.00  0.00    +0.000 OA
ATOM      2  C   UNL     1      -1.469   0.801   0.019  0.00  0.00    +0.000 A 
ATOM      3  C   UNL     1      -0.031   0.495  -0.004  0.00  0.00    +0.000 A 
ATOM      4  C   UNL     1      -2.301  -0.427  -0.023  0.00  0.00    +0.000 A 
ATOM      5  C   UNL     1       0.286  -0.846  -0.066  0.00  0.00    +0.000 A 
ATOM      6  C   UNL     1       1.050   1.452   0.035  0.00  0.00    +0.000 A 
ATOM      7  C   UNL     1      -1.823  -1.445  -0.067  0.00  0.00    +0.000 A 
ATOM      8  O   UNL     1      -0.748  -1.769  -0.109  0.00  0.00    +0.000 OA
ATOM      9  C   UNL     1       1.666  -1.265  -0.075  0.00  0.00    +0.000 A 
ATOM     10  C   UNL     1       2.379   1.037   0.023  0.00  0.00    +0.000 A 
ATOM     11  C   UNL     1       2.687  -0.319  -0.030  0.00  0.00    +0.000 A 
ENDROOT
BRANCH   7  12
ATOM     12  C   UNL     1      -2.712  -2.650  -0.168  0.00  0.00    +0.000 A 
ATOM     13  C   UNL     1      -3.098  -3.175  -1.419  0.00  0.00    +0.000 A 
ATOM     14  C   UNL     1      -3.219  -3.238   1.004  0.00  0.00    +0.000 A 
ATOM     15  C   UNL     1      -3.982  -4.252  -1.479  0.00  0.00    +0.000 A 
ATOM     16  C   UNL     1      -4.094  -4.320   0.927  0.00  0.00    +0.000 A 
ATOM     17  C   UNL     1      -4.479  -4.823  -0.312  0.00  0.00    +0.000 A 
BRANCH  13  18
ATOM     18  O   UNL     1      -2.628  -2.646  -2.586  0.00  0.00    +0.000 OA
ATOM     19  H   UNL     1      -1.873  -2.062  -2.384  0.00  0.00    +0.000 HD
ENDBRANCH  13  18
ENDBRANCH   7  12
TORSDOF 2
