REMARK  Name = opt17.pdb
REMARK  2 active torsions:
REMARK  status: ('A' for Active; 'I' for Inactive)
REMARK    1  A    between atoms: O_1  and  C_2
REMARK    2  A    between atoms: C_7  and  O_8
REMARK                            x       y       z     vdW  Elec       q    Type
REMARK                         _______ _______ _______ _____ _____    ______ ____
ROOT
ATOM      1  C   UNL     1      -1.400   0.032   0.004  0.00  0.00    +0.000 A 
ATOM      2  C   UNL     1      -0.693  -1.171   0.002  0.00  0.00    +0.000 A 
ATOM      3  C   UNL     1      -0.713   1.245   0.006  0.00  0.00    +0.000 A 
ATOM      4  C   UNL     1       0.701  -1.159   0.001  0.00  0.00    +0.000 A 
ATOM      5  C   UNL     1       0.680   1.257   0.005  0.00  0.00    +0.000 A 
ATOM      6  C   UNL     1       1.387   0.056   0.001  0.00  0.00    +0.000 A 
ENDROOT
BRANCH   1   7
ATOM      7  O   UNL     1      -2.761   0.027   0.001  0.00  0.00    +0.000 OA
ATOM      8  H   UNL     1      -3.089  -0.889  -0.021  0.00  0.00    +0.000 HD
ENDBRANCH   1   7
BRANCH   6   9
ATOM      9  O   UNL     1       2.749   0.073  -0.004  0.00  0.00    +0.000 OA
ATOM     10  H   UNL     1       3.090  -0.838  -0.021  0.00  0.00    +0.000 HD
ENDBRANCH   6   9
TORSDOF 2
