REMARK  Name = opt14.pdb
REMARK  3 active torsions:
REMARK  status: ('A' for Active; 'I' for Inactive)
REMARK    1  A    between atoms: O_1  and  C_2
REMARK    2  A    between atoms: O_1  and  C_3
REMARK    3  A    between atoms: C_8  and  O_9
REMARK                            x       y       z     vdW  Elec       q    Type
REMARK                         _______ _______ _______ _____ _____    ______ ____
ROOT
ATOM      1  C   UNL     1       0.859  -0.039   0.012  0.00  0.00    +0.000 A 
ATOM      2  C   UNL     1       0.112  -1.223   0.009  0.00  0.00    +0.000 A 
ATOM      3  C   UNL     1       0.201   1.190   0.008  0.00  0.00    +0.000 A 
ATOM      4  C   UNL     1      -1.281  -1.169  -0.001  0.00  0.00    +0.000 A 
ATOM      5  C   UNL     1      -1.191   1.243  -0.002  0.00  0.00    +0.000 A 
ATOM      6  C   UNL     1      -1.933   0.064  -0.007  0.00  0.00    +0.000 A 
ENDROOT
BRANCH   1   7
ATOM      7  O   UNL     1       2.242  -0.032   0.017  0.00  0.00    +0.000 OA
ATOM      8  C   UNL     1       3.043  -1.237   0.016  0.00  0.00    +0.000 C 
ENDBRANCH   1   7
BRANCH   6   9
ATOM      9  O   UNL     1      -3.295   0.120  -0.020  0.00  0.00    +0.000 OA
ATOM     10  H   UNL     1      -3.668  -0.780  -0.033  0.00  0.00    +0.000 HD
ENDBRANCH   6   9
TORSDOF 2
