REMARK  Name = opt11.pdb
REMARK  5 active torsions:
REMARK  status: ('A' for Active; 'I' for Inactive)
REMARK    1  A    between atoms: C_2  and  C_4
REMARK    2  A    between atoms: C_5  and  C_6
REMARK    3  A    between atoms: C_9  and  O_11
REMARK    4  A    between atoms: O_11  and  C_13
REMARK    5  A    between atoms: C_12  and  O_14
REMARK                            x       y       z     vdW  Elec       q    Type
REMARK                         _______ _______ _______ _____ _____    ______ ____
ROOT
ATOM      1  C   UNL     1       5.242  -2.385   1.237  0.00  0.00    +0.000 A 
ATOM      2  C   UNL     1       4.894  -3.698   0.917  0.00  0.00    +0.000 A 
ATOM      3  C   UNL     1       6.259  -2.142   2.161  0.00  0.00    +0.000 A 
ATOM      4  C   UNL     1       5.553  -4.771   1.528  0.00  0.00    +0.000 A 
ATOM      5  C   UNL     1       6.925  -3.207   2.765  0.00  0.00    +0.000 A 
ATOM      6  C   UNL     1       6.570  -4.516   2.448  0.00  0.00    +0.000 A 
ENDROOT
BRANCH   1   8
ATOM      7  C   UNL     1       3.230  -1.146   0.331  0.00  0.00    +0.000 C 
ATOM      8  C   UNL     1       4.542  -1.256   0.590  0.00  0.00    +0.000 C 
BRANCH   7  10
ATOM      9  O   UNL     1       1.347  -0.127  -0.501  0.00  0.00    +0.000 OA
ATOM     10  C   UNL     1       2.545  -0.019  -0.335  0.00  0.00    +0.000 C 
ATOM     11  O   UNL     1       3.213   0.934  -0.682  0.00  0.00    +0.000 OA
ENDBRANCH   7  10
ENDBRANCH   1   8
BRANCH   4  12
ATOM     12  O   UNL     1       5.241  -6.099   1.263  0.00  0.00    +0.000 OA
ATOM     13  C   UNL     1       4.141  -6.480   0.403  0.00  0.00    +0.000 C 
ENDBRANCH   4  12
BRANCH   6  14
ATOM     14  O   UNL     1       7.203  -5.571   3.028  0.00  0.00    +0.000 OA
ATOM     15  H   UNL     1       6.775  -6.366   2.648  0.00  0.00    +0.000 HD
ENDBRANCH   6  14
TORSDOF 4
