REMARK  Name = opt29.pdb
REMARK  3 active torsions:
REMARK  status: ('A' for Active; 'I' for Inactive)
REMARK    1  A    between atoms: O_1  and  C_2
REMARK    2  A    between atoms: C_5  and  O_7
REMARK    3  A    between atoms: C_6  and  O_9
REMARK                            x       y       z     vdW  Elec       q    Type
REMARK                         _______ _______ _______ _____ _____    ______ ____
ROOT
ATOM      1  C   UNL     1      -1.355   0.106  -0.004  0.00  0.00    +0.000 A 
ATOM      2  C   UNL     1      -0.556   1.252  -0.010  0.00  0.00    +0.000 A 
ATOM      3  C   UNL     1      -0.757  -1.153   0.002  0.00  0.00    +0.000 A 
ATOM      4  C   UNL     1       0.837   1.132  -0.012  0.00  0.00    +0.000 A 
ATOM      5  C   UNL     1       0.633  -1.268   0.000  0.00  0.00    +0.000 A 
ATOM      6  C   UNL     1       1.430  -0.128  -0.007  0.00  0.00    +0.000 A 
ENDROOT
BRANCH   1   7
ATOM      7  O   UNL     1      -2.719   0.198  -0.002  0.00  0.00    +0.000 OA
ATOM      8  H   UNL     1      -3.010   1.127  -0.002  0.00  0.00    +0.000 HD
ENDBRANCH   1   7
BRANCH   4   9
ATOM      9  O   UNL     1       1.633   2.236  -0.015  0.00  0.00    +0.000 OA
ATOM     10  H   UNL     1       1.082   3.032   0.011  0.00  0.00    +0.000 HD
ENDBRANCH   4   9
BRANCH   5  11
ATOM     11  O   UNL     1       1.218  -2.495   0.007  0.00  0.00    +0.000 OA
ATOM     12  H   UNL     1       0.516  -3.163   0.014  0.00  0.00    +0.000 HD
ENDBRANCH   5  11
TORSDOF 3
