REMARK  Name = opt22.pdb
REMARK  3 active torsions:
REMARK  status: ('A' for Active; 'I' for Inactive)
REMARK    1  A    between atoms: C_3  and  O_5
REMARK    2  A    between atoms: C_7  and  C_9
REMARK    3  A    between atoms: C_9  and  O_10
REMARK                            x       y       z     vdW  Elec       q    Type
REMARK                         _______ _______ _______ _____ _____    ______ ____
ROOT
ATOM      1  O   UNL     1       1.856   1.119   0.009  0.00  0.00    +0.000 OA
ATOM      2  C   UNL     1       0.753   0.606   0.013  0.00  0.00    +0.000 A 
ATOM      3  C   UNL     1       0.532  -0.844   0.026  0.00  0.00    +0.000 A 
ATOM      4  C   UNL     1      -0.489   1.378  -0.009  0.00  0.00    +0.000 A 
ATOM      5  C   UNL     1      -0.737  -1.380   0.026  0.00  0.00    +0.000 A 
ATOM      6  C   UNL     1      -1.719   0.758  -0.012  0.00  0.00    +0.000 A 
ATOM      7  O   UNL     1      -1.898  -0.617   0.018  0.00  0.00    +0.000 OA
ENDROOT
BRANCH   3   8
ATOM      8  O   UNL     1       1.659  -1.590   0.031  0.00  0.00    +0.000 OA
ATOM      9  H   UNL     1       2.411  -0.962   0.019  0.00  0.00    +0.000 HD
ENDBRANCH   3   8
BRANCH   6  10
ATOM     10  C   UNL     1      -2.974   1.588  -0.052  0.00  0.00    +0.000 C 
BRANCH  10  11
ATOM     11  O   UNL     1      -3.815   1.284   1.061  0.00  0.00    +0.000 OA
ATOM     12  H   UNL     1      -3.992   0.324   1.047  0.00  0.00    +0.000 HD
ENDBRANCH  10  11
ENDBRANCH   6  10
TORSDOF 3
