REMARK  Name = opt21.pdb
REMARK  5 active torsions:
REMARK  status: ('A' for Active; 'I' for Inactive)
REMARK    1  A    between atoms: C_6  and  O_10
REMARK    2  A    between atoms: C_7  and  C_12
REMARK    3  A    between atoms: C_9  and  O_13
REMARK    4  A    between atoms: O_10  and  C_15
REMARK    5  A    between atoms: O_13  and  C_17
REMARK                            x       y       z     vdW  Elec       q    Type
REMARK                         _______ _______ _______ _____ _____    ______ ____
ROOT
ATOM      1  O   UNL     1       0.830  -0.149  -0.529  0.00  0.00    +0.000 OA
ATOM      2  C   UNL     1       2.035  -0.122  -0.366  0.00  0.00    +0.000 A 
ATOM      3  C   UNL     1       2.873  -1.318  -0.183  0.00  0.00    +0.000 A 
ATOM      4  C   UNL     1       2.777   1.136  -0.292  0.00  0.00    +0.000 A 
ATOM      5  C   UNL     1       4.255  -1.188  -0.082  0.00  0.00    +0.000 A 
ATOM      6  C   UNL     1       2.313  -2.654  -0.110  0.00  0.00    +0.000 A 
ATOM      7  C   UNL     1       4.145   1.155  -0.146  0.00  0.00    +0.000 A 
ATOM      8  O   UNL     1       4.936   0.021  -0.185  0.00  0.00    +0.000 OA
ATOM      9  C   UNL     1       5.080  -2.383  -0.016  0.00  0.00    +0.000 A 
ATOM     10  C   UNL     1       3.155  -3.746  -0.518  0.00  0.00    +0.000 A 
ATOM     11  C   UNL     1       4.875   2.464  -0.029  0.00  0.00    +0.000 C 
ATOM     12  C   UNL     1       4.566  -3.605  -0.595  0.00  0.00    +0.000 A 
ATOM     13  C   UNL     1       2.882  -5.116  -0.224  0.00  0.00    +0.000 A 
ATOM     14  O   UNL     1       5.137  -4.845  -0.411  0.00  0.00    +0.000 OA
ATOM     15  C   UNL     1       4.108  -5.732  -0.211  0.00  0.00    +0.000 A 
ENDROOT
BRANCH   6  16
ATOM     16  O   UNL     1       1.291  -2.786   0.811  0.00  0.00    +0.000 OA
ATOM     17  C   UNL     1      -0.002  -3.271   0.380  0.00  0.00    +0.000 C 
ENDBRANCH   6  16
BRANCH   9  18
ATOM     18  O   UNL     1       6.425  -2.624   0.216  0.00  0.00    +0.000 OA
ATOM     19  C   UNL     1       7.361  -1.543   0.412  0.00  0.00    +0.000 C 
ENDBRANCH   9  18
TORSDOF 2
