REMARK  Name = opt27.pdb
REMARK  10 active torsions:
REMARK  status: ('A' for Active; 'I' for Inactive)
REMARK    1  A    between atoms: C_6  and  O_10
REMARK    2  A    between atoms: C_7  and  C_12
REMARK    3  A    between atoms: C_9  and  C_14
REMARK    4  A    between atoms: C_13  and  O_17
REMARK    5  A    between atoms: C_19  and  O_23
REMARK    6  A    between atoms: C_22  and  C_27
REMARK    7  A    between atoms: C_24  and  O_28
REMARK    8  A    between atoms: C_25  and  O_29
REMARK    9  A    between atoms: C_26  and  O_30
REMARK   10  A    between atoms: C_27  and  O_31
REMARK                            x       y       z     vdW  Elec       q    Type
REMARK                         _______ _______ _______ _____ _____    ______ ____
ROOT
ATOM      1  O   UNL     1      -2.783   1.246   0.523  0.00  0.00    +0.000 OA
ATOM      2  C   UNL     1      -2.098   0.243   0.461  0.00  0.00    +0.000 A 
ATOM      3  C   UNL     1      -0.632   0.243   0.320  0.00  0.00    +0.000 A 
ATOM      4  C   UNL     1      -2.674  -1.118   0.420  0.00  0.00    +0.000 A 
ATOM      5  C   UNL     1      -0.024  -1.004   0.227  0.00  0.00    +0.000 A 
ATOM      6  C   UNL     1       0.151   1.430   0.070  0.00  0.00    +0.000 A 
ATOM      7  C   UNL     1      -2.000  -2.012   0.283  0.00  0.00    +0.000 A 
ATOM      8  O   UNL     1      -0.880  -2.107   0.203  0.00  0.00    +0.000 OA
ATOM      9  C   UNL     1       1.355  -1.114  -0.234  0.00  0.00    +0.000 A 
ATOM     10  C   UNL     1       1.347   1.302  -0.606  0.00  0.00    +0.000 A 
ATOM     11  C   UNL     1       1.907   0.052  -0.814  0.00  0.00    +0.000 A 
ENDROOT
BRANCH   9  12
ATOM     12  C   UNL     1       2.312  -2.334  -0.272  0.00  0.00    +0.000 C 
ATOM     13  O   UNL     1       3.620  -1.913   0.204  0.00  0.00    +0.000 OA
ATOM     14  C   UNL     1       2.030  -3.707   0.417  0.00  0.00    +0.000 C 
ATOM     15  C   UNL     1       3.720  -1.678   1.627  0.00  0.00    +0.000 C 
ATOM     16  C   UNL     1       2.427  -3.810   1.930  0.00  0.00    +0.000 C 
ATOM     17  C   UNL     1       3.765  -3.090   2.251  0.00  0.00    +0.000 C 
BRANCH  14  18
ATOM     18  O   UNL     1       2.868  -4.628  -0.297  0.00  0.00    +0.000 OA
ATOM     19  H   UNL     1       3.760  -4.221  -0.339  0.00  0.00    +0.000 HD
ENDBRANCH  14  18
BRANCH  16  20
ATOM     20  O   UNL     1       2.567  -5.197   2.307  0.00  0.00    +0.000 OA
ATOM     21  H   UNL     1       3.276  -5.625   1.769  0.00  0.00    +0.000 HD
ENDBRANCH  16  20
BRANCH  17  22
ATOM     22  O   UNL     1       4.012  -3.066   3.670  0.00  0.00    +0.000 OA
ATOM     23  H   UNL     1       3.265  -2.675   4.162  0.00  0.00    +0.000 HD
ENDBRANCH  17  22
BRANCH  15  24
ATOM     24  C   UNL     1       4.974  -0.806   1.837  0.00  0.00    +0.000 C 
BRANCH  24  25
ATOM     25  O   UNL     1       5.089  -0.428   3.205  0.00  0.00    +0.000 OA
ATOM     26  H   UNL     1       5.137  -1.259   3.714  0.00  0.00    +0.000 HD
ENDBRANCH  24  25
ENDBRANCH  15  24
ENDBRANCH   9  12
BRANCH   7  27
ATOM     27  C   UNL     1      -2.819  -3.248   0.043  0.00  0.00    +0.000 A 
ATOM     28  C   UNL     1      -3.032  -3.738  -1.259  0.00  0.00    +0.000 A 
ATOM     29  C   UNL     1      -3.450  -3.889   1.124  0.00  0.00    +0.000 A 
ATOM     30  C   UNL     1      -3.839  -4.858  -1.463  0.00  0.00    +0.000 A 
ATOM     31  C   UNL     1      -4.251  -5.007   0.907  0.00  0.00    +0.000 A 
ATOM     32  C   UNL     1      -4.442  -5.498  -0.381  0.00  0.00    +0.000 A 
BRANCH  32  33
ATOM     33  O   UNL     1      -5.224  -6.600  -0.565  0.00  0.00    +0.000 OA
ATOM     34  H   UNL     1      -5.187  -6.902  -1.490  0.00  0.00    +0.000 HD
ENDBRANCH  32  33
ENDBRANCH   7  27
BRANCH   6  35
ATOM     35  O   UNL     1      -0.313   2.700   0.251  0.00  0.00    +0.000 OA
ATOM     36  H   UNL     1      -1.284   2.672   0.343  0.00  0.00    +0.000 HD
ENDBRANCH   6  35
BRANCH  11  37
ATOM     37  O   UNL     1       3.054   0.022  -1.552  0.00  0.00    +0.000 OA
ATOM     38  H   UNL     1       3.401  -0.892  -1.522  0.00  0.00    +0.000 HD
ENDBRANCH  11  37
TORSDOF 10
