REMARK  Name = opt24.pdb
REMARK  4 active torsions:
REMARK  status: ('A' for Active; 'I' for Inactive)
REMARK    1  A    between atoms: C_3  and  C_5
REMARK    2  A    between atoms: N_11  and  C_14
REMARK    3  A    between atoms: C_14  and  C_16
REMARK    4  A    between atoms: C_15  and  C_17
REMARK                            x       y       z     vdW  Elec       q    Type
REMARK                         _______ _______ _______ _____ _____    ______ ____
ROOT
ATOM      1  O   UNL     1       0.718  -0.014   0.021  0.00  0.00    +0.000 OA
ATOM      2  C   UNL     1       1.934   0.060   0.024  0.00  0.00    +0.000 A 
ATOM      3  C   UNL     1       2.725   1.301  -0.009  0.00  0.00    +0.000 A 
ATOM      4  C   UNL     1       2.748  -1.149   0.048  0.00  0.00    +0.000 A 
ATOM      5  C   UNL     1       4.109   1.277   0.009  0.00  0.00    +0.000 A 
ATOM      6  C   UNL     1       4.145  -1.155   0.058  0.00  0.00    +0.000 A 
ATOM      7  C   UNL     1       2.123  -2.465   0.052  0.00  0.00    +0.000 A 
ATOM      8  N   UNL     1       4.824   0.074   0.057  0.00  0.00    +0.000 N 
ATOM      9  N   UNL     1       4.756  -2.096   0.064  0.00  0.00    +0.000 NA
ATOM     10  C   UNL     1       2.932  -3.595   0.055  0.00  0.00    +0.000 A 
ATOM     11  C   UNL     1       4.302  -3.367   0.062  0.00  0.00    +0.000 A 
ATOM     12  C   UNL     1       5.313  -4.497   0.061  0.00  0.00    +0.000 C 
ENDROOT
BRANCH   3  13
ATOM     13  C   UNL     1       2.084   2.646  -0.069  0.00  0.00    +0.000 C 
ATOM     14  O   UNL     1       0.876   2.754  -0.108  0.00  0.00    +0.000 OA
ATOM     15  O   UNL     1       2.794   3.635  -0.086  0.00  0.00    +0.000 OA
ENDBRANCH   3  13
BRANCH   8  16
ATOM     16  C   UNL     1       6.296   0.175   0.068  0.00  0.00    +0.000 C 
ATOM     17  C   UNL     1       6.905   0.110  -1.344  0.00  0.00    +0.000 C 
ENDBRANCH   8  16
TORSDOF 2
