REMARK  Name = opt26.pdb
REMARK  1 active torsions:
REMARK  status: ('A' for Active; 'I' for Inactive)
REMARK    1  A    between atoms: C_10  and  O_12
REMARK                            x       y       z     vdW  Elec       q    Type
REMARK                         _______ _______ _______ _____ _____    ______ ____
ROOT
ATOM      1  O   UNL     1       3.453   1.105  -0.008  0.00  0.00    +0.000 OA
ATOM      2  C   UNL     1       2.433   0.447  -0.005  0.00  0.00    +0.000 A 
ATOM      3  O   UNL     1       1.213   1.040  -0.006  0.00  0.00    +0.000 OA
ATOM      4  C   UNL     1       2.410  -1.024   0.000  0.00  0.00    +0.000 A 
ATOM      5  C   UNL     1       0.009   0.365  -0.002  0.00  0.00    +0.000 A 
ATOM      6  C   UNL     1       1.184  -1.772   0.002  0.00  0.00    +0.000 A 
ATOM      7  C   UNL     1      -0.015  -1.073   0.001  0.00  0.00    +0.000 A 
ATOM      8  C   UNL     1      -1.219   1.109  -0.003  0.00  0.00    +0.000 A 
ATOM      9  C   UNL     1      -1.248  -1.725   0.002  0.00  0.00    +0.000 A 
ATOM     10  C   UNL     1      -2.426   0.409  -0.002  0.00  0.00    +0.000 A 
ATOM     11  C   UNL     1      -2.435  -0.989   0.001  0.00  0.00    +0.000 A 
ENDROOT
BRANCH  10  12
ATOM     12  O   UNL     1      -3.611   1.084  -0.002  0.00  0.00    +0.000 OA
ATOM     13  H   UNL     1      -3.451   2.046  -0.002  0.00  0.00    +0.000 HD
ENDBRANCH  10  12
TORSDOF 1
