REMARK  Name = opt25.pdb
REMARK  8 active torsions:
REMARK  status: ('A' for Active; 'I' for Inactive)
REMARK    1  A    between atoms: C_5  and  C_8
REMARK    2  A    between atoms: C_6  and  O_9
REMARK    3  A    between atoms: O_9  and  C_14
REMARK    4  A    between atoms: C_10  and  O_15
REMARK    5  A    between atoms: N_12  and  C_18
REMARK    6  A    between atoms: O_15  and  C_21
REMARK    7  A    between atoms: C_19  and  O_23
REMARK    8  A    between atoms: O_23  and  C_26
REMARK                            x       y       z     vdW  Elec       q    Type
REMARK                         _______ _______ _______ _____ _____    ______ ____
ROOT
ATOM      1  C   UNL     1       0.677  -2.863   1.366  0.00  0.00    +0.000 C 
ATOM      2  N   UNL     1       0.860  -1.876   2.485  0.00  0.00    +0.000 NA
ATOM      3  C   UNL     1       2.010  -3.531   0.954  0.00  0.00    +0.000 A 
ATOM      4  C   UNL     1       1.770  -2.315   3.560  0.00  0.00    +0.000 C 
ATOM      5  C   UNL     1      -0.340  -1.170   2.983  0.00  0.00    +0.000 C 
ATOM      6  C   UNL     1       2.094  -4.320  -0.205  0.00  0.00    +0.000 A 
ATOM      7  C   UNL     1       3.175  -3.338   1.713  0.00  0.00    +0.000 A 
ATOM      8  C   UNL     1       3.173  -2.475   2.964  0.00  0.00    +0.000 C 
ATOM      9  C   UNL     1       3.321  -4.963  -0.620  0.00  0.00    +0.000 A 
ATOM     10  C   UNL     1       4.382  -3.911   1.318  0.00  0.00    +0.000 A 
ATOM     11  O   UNL     1       3.320  -6.268  -1.037  0.00  0.00    +0.000 OA
ATOM     12  C   UNL     1       4.500  -4.732   0.146  0.00  0.00    +0.000 A 
ATOM     13  C   UNL     1       4.579  -6.868  -0.643  0.00  0.00    +0.000 C 
ATOM     14  O   UNL     1       5.232  -5.886   0.202  0.00  0.00    +0.000 OA
ENDROOT
BRANCH   1  19
ATOM     15  O   UNL     1      -3.801  -3.753   2.469  0.00  0.00    +0.000 OA
ATOM     16  C   UNL     1      -2.600  -3.923   2.439  0.00  0.00    +0.000 C 
ATOM     17  O   UNL     1      -1.775  -3.272   1.605  0.00  0.00    +0.000 OA
ATOM     18  C   UNL     1      -1.757  -4.811   3.236  0.00  0.00    +0.000 A 
ATOM     19  C   UNL     1      -0.469  -3.904   1.590  0.00  0.00    +0.000 C 
ATOM     20  C   UNL     1      -2.151  -5.842   4.186  0.00  0.00    +0.000 A 
ATOM     21  C   UNL     1      -0.391  -4.791   2.816  0.00  0.00    +0.000 A 
ATOM     22  C   UNL     1      -1.267  -6.935   4.355  0.00  0.00    +0.000 A 
ATOM     23  C   UNL     1       0.424  -5.903   2.941  0.00  0.00    +0.000 A 
ATOM     24  C   UNL     1      -0.018  -6.959   3.726  0.00  0.00    +0.000 A 
BRANCH  20  25
ATOM     25  O   UNL     1      -3.294  -5.812   4.974  0.00  0.00    +0.000 OA
ATOM     26  C   UNL     1      -3.936  -4.601   5.436  0.00  0.00    +0.000 C 
ENDBRANCH  20  25
BRANCH  22  27
ATOM     27  O   UNL     1      -1.516  -8.047   5.155  0.00  0.00    +0.000 OA
ATOM     28  C   UNL     1      -2.799  -8.441   5.697  0.00  0.00    +0.000 C 
ENDBRANCH  22  27
ENDBRANCH   1  19
BRANCH   6  29
ATOM     29  O   UNL     1       0.977  -4.632  -0.953  0.00  0.00    +0.000 OA
ATOM     30  C   UNL     1       0.600  -3.844  -2.099  0.00  0.00    +0.000 C 
ENDBRANCH   6  29
TORSDOF 4
