REMARK  Name = opt28.pdb
REMARK  3 active torsions:
REMARK  status: ('A' for Active; 'I' for Inactive)
REMARK    1  A    between atoms: O_1  and  C_2
REMARK    2  A    between atoms: C_3  and  O_5
REMARK    3  A    between atoms: C_4  and  O_7
REMARK                            x       y       z     vdW  Elec       q    Type
REMARK                         _______ _______ _______ _____ _____    ______ ____
ROOT
ATOM      1  C   UNL     1       0.024   0.657  -0.020  0.00  0.00    +0.000 A 
ATOM      2  C   UNL     1      -1.188  -0.039   0.019  0.00  0.00    +0.000 A 
ATOM      3  C   UNL     1       1.229  -0.049  -0.045  0.00  0.00    +0.000 A 
ATOM      4  C   UNL     1      -1.187  -1.433   0.062  0.00  0.00    +0.000 A 
ATOM      5  C   UNL     1       1.227  -1.442  -0.013  0.00  0.00    +0.000 A 
ATOM      6  C   UNL     1       0.018  -2.134   0.047  0.00  0.00    +0.000 A 
ENDROOT
BRANCH   1   7
ATOM      7  O   UNL     1       0.047   2.025  -0.001  0.00  0.00    +0.000 OA
ATOM      8  H   UNL     1      -0.696   2.350   0.541  0.00  0.00    +0.000 HD
ENDBRANCH   1   7
BRANCH   2   9
ATOM      9  O   UNL     1      -2.377   0.631  -0.021  0.00  0.00    +0.000 OA
ATOM     10  H   UNL     1      -2.281   1.418  -0.589  0.00  0.00    +0.000 HD
ENDBRANCH   2   9
BRANCH   3  11
ATOM     11  O   UNL     1       2.404   0.638  -0.088  0.00  0.00    +0.000 OA
ATOM     12  H   UNL     1       2.172   1.589  -0.115  0.00  0.00    +0.000 HD
ENDBRANCH   3  11
TORSDOF 3
