REMARK  Name = opt20.pdb
REMARK  2 active torsions:
REMARK  status: ('A' for Active; 'I' for Inactive)
REMARK    1  A    between atoms: C_2  and  C_4
REMARK    2  A    between atoms: C_7  and  O_9
REMARK                            x       y       z     vdW  Elec       q    Type
REMARK                         _______ _______ _______ _____ _____    ______ ____
ROOT
ATOM      1  C   UNL     1       3.134   0.093  -1.211  0.00  0.00    +0.000 A 
ATOM      2  C   UNL     1       2.763   0.964  -2.240  0.00  0.00    +0.000 A 
ATOM      3  C   UNL     1       4.242  -0.741  -1.396  0.00  0.00    +0.000 A 
ATOM      4  C   UNL     1       3.486   1.003  -3.432  0.00  0.00    +0.000 A 
ATOM      5  C   UNL     1       4.964  -0.705  -2.588  0.00  0.00    +0.000 A 
ATOM      6  C   UNL     1       4.587   0.167  -3.607  0.00  0.00    +0.000 A 
ENDROOT
BRANCH   1   8
ATOM      7  O   UNL     1       1.397   0.796   0.185  0.00  0.00    +0.000 OA
ATOM      8  C   UNL     1       2.354   0.055   0.073  0.00  0.00    +0.000 C 
ATOM      9  O   UNL     1       2.712  -0.714   0.942  0.00  0.00    +0.000 OA
ENDBRANCH   1   8
BRANCH   4  10
ATOM     10  O   UNL     1       3.121   1.861  -4.429  0.00  0.00    +0.000 OA
ATOM     11  H   UNL     1       2.349   2.372  -4.122  0.00  0.00    +0.000 HD
ENDBRANCH   4  10
TORSDOF 2
