REMARK  Name = opt23.pdb
REMARK  5 active torsions:
REMARK  status: ('A' for Active; 'I' for Inactive)
REMARK    1  A    between atoms: C_2  and  O_3
REMARK    2  A    between atoms: C_2  and  C_4
REMARK    3  A    between atoms: O_3  and  C_5
REMARK    4  A    between atoms: C_6  and  O_8
REMARK    5  A    between atoms: O_8  and  C_11
REMARK                            x       y       z     vdW  Elec       q    Type
REMARK                         _______ _______ _______ _____ _____    ______ ____
ROOT
ATOM      1  C   UNL     1       2.959  -0.870  -0.720  0.00  0.00    +0.000 A 
ATOM      2  C   UNL     1       2.841  -0.226  -1.970  0.00  0.00    +0.000 A 
ATOM      3  C   UNL     1       3.696  -2.063  -0.661  0.00  0.00    +0.000 A 
ATOM      4  C   UNL     1       3.453  -0.762  -3.103  0.00  0.00    +0.000 A 
ATOM      5  C   UNL     1       4.299  -2.596  -1.797  0.00  0.00    +0.000 A 
ATOM      6  C   UNL     1       4.179  -1.945  -3.020  0.00  0.00    +0.000 A 
ENDROOT
BRANCH   1   8
ATOM      7  O   UNL     1       1.670   0.696   0.584  0.00  0.00    +0.000 OA
ATOM      8  C   UNL     1       2.324  -0.330   0.543  0.00  0.00    +0.000 C 
BRANCH   8   9
ATOM      9  O   UNL     1       2.515  -1.085   1.654  0.00  0.00    +0.000 OA
ATOM     10  C   UNL     1       1.931  -0.653   2.907  0.00  0.00    +0.000 C 
ENDBRANCH   8   9
ENDBRANCH   1   8
BRANCH   2  11
ATOM     11  O   UNL     1       2.143   0.953  -2.132  0.00  0.00    +0.000 OA
ATOM     12  C   UNL     1       0.729   0.907  -2.428  0.00  0.00    +0.000 C 
ENDBRANCH   2  11
TORSDOF 3
