REMARK  Name = opt38.pdb
REMARK  3 active torsions:
REMARK  status: ('A' for Active; 'I' for Inactive)
REMARK    1  A    between atoms: C_10  and  O_12
REMARK    2  A    between atoms: C_11  and  O_13
REMARK    3  A    between atoms: O_12  and  C_14
REMARK                            x       y       z     vdW  Elec       q    Type
REMARK                         _______ _______ _______ _____ _____    ______ ____
ROOT
ATOM      1  O   UNL     1       0.890  -0.188  -0.177  0.00  0.00    +0.000 OA
ATOM      2  C   UNL     1       2.088  -0.070  -0.029  0.00  0.00    +0.000 A 
ATOM      3  O   UNL     1       2.902  -1.154   0.030  0.00  0.00    +0.000 OA
ATOM      4  C   UNL     1       2.774   1.227   0.089  0.00  0.00    +0.000 A 
ATOM      5  C   UNL     1       4.266  -1.106   0.244  0.00  0.00    +0.000 A 
ATOM      6  C   UNL     1       4.199   1.330   0.229  0.00  0.00    +0.000 A 
ATOM      7  C   UNL     1       4.943   0.159   0.284  0.00  0.00    +0.000 A 
ATOM      8  C   UNL     1       5.029  -2.321   0.222  0.00  0.00    +0.000 A 
ATOM      9  C   UNL     1       6.332   0.175   0.374  0.00  0.00    +0.000 A 
ATOM     10  C   UNL     1       6.421  -2.268   0.305  0.00  0.00    +0.000 A 
ATOM     11  C   UNL     1       7.069  -1.015   0.390  0.00  0.00    +0.000 A 
ENDROOT
BRANCH  10  12
ATOM     12  O   UNL     1       7.064  -3.502   0.292  0.00  0.00    +0.000 OA
ATOM     13  C   UNL     1       8.494  -3.723   0.316  0.00  0.00    +0.000 C 
ENDBRANCH  10  12
BRANCH  11  14
ATOM     14  O   UNL     1       8.428  -0.897   0.474  0.00  0.00    +0.000 OA
ATOM     15  H   UNL     1       8.682   0.042   0.493  0.00  0.00    +0.000 HD
ENDBRANCH  11  14
TORSDOF 2
