REMARK  Name = opt34.pdb
REMARK  4 active torsions:
REMARK  status: ('A' for Active; 'I' for Inactive)
REMARK    1  A    between atoms: C_2  and  C_3
REMARK    2  A    between atoms: C_6  and  O_8
REMARK    3  A    between atoms: O_8  and  C_10
REMARK    4  A    between atoms: C_9  and  O_11
REMARK                            x       y       z     vdW  Elec       q    Type
REMARK                         _______ _______ _______ _____ _____    ______ ____
ROOT
ATOM      1  C   UNL     1       2.966   0.525   1.118  0.00  0.00    +0.000 A 
ATOM      2  C   UNL     1       2.598   0.207   2.428  0.00  0.00    +0.000 A 
ATOM      3  C   UNL     1       4.025   1.405   0.888  0.00  0.00    +0.000 A 
ATOM      4  C   UNL     1       3.290   0.767   3.507  0.00  0.00    +0.000 A 
ATOM      5  C   UNL     1       4.714   1.966   1.960  0.00  0.00    +0.000 A 
ATOM      6  C   UNL     1       4.345   1.646   3.264  0.00  0.00    +0.000 A 
ENDROOT
BRANCH   1   8
ATOM      7  O   UNL     1       1.307  -0.839   0.050  0.00  0.00    +0.000 OA
ATOM      8  C   UNL     1       2.239  -0.066  -0.043  0.00  0.00    +0.000 C 
ENDBRANCH   1   8
BRANCH   4   9
ATOM      9  O   UNL     1       2.978   0.487   4.830  0.00  0.00    +0.000 OA
ATOM     10  C   UNL     1       1.918  -0.417   5.219  0.00  0.00    +0.000 C 
ENDBRANCH   4   9
BRANCH   6  11
ATOM     11  O   UNL     1       5.007   2.185   4.322  0.00  0.00    +0.000 OA
ATOM     12  H   UNL     1       4.574   1.820   5.122  0.00  0.00    +0.000 HD
ENDBRANCH   6  11
TORSDOF 3
