REMARK  Name = opt39.pdb
REMARK  1 active torsions:
REMARK  status: ('A' for Active; 'I' for Inactive)
REMARK    1  A    between atoms: C_2  and  C_4
REMARK                            x       y       z     vdW  Elec       q    Type
REMARK                         _______ _______ _______ _____ _____    ______ ____
ROOT
ATOM      1  C   UNL     1       3.001   0.151   1.244  0.00  0.00    +0.000 A 
ATOM      2  C   UNL     1       4.238   0.805   1.282  0.00  0.00    +0.000 A 
ATOM      3  C   UNL     1       2.556  -0.476   2.415  0.00  0.00    +0.000 A 
ATOM      4  N   UNL     1       5.015   0.868   2.388  0.00  0.00    +0.000 NA
ATOM      5  C   UNL     1       3.350  -0.419   3.559  0.00  0.00    +0.000 A 
ATOM      6  C   UNL     1       4.565   0.261   3.508  0.00  0.00    +0.000 A 
ENDROOT
BRANCH   1   8
ATOM      7  O   UNL     1       2.587   0.673  -1.054  0.00  0.00    +0.000 OA
ATOM      8  C   UNL     1       2.203   0.144  -0.031  0.00  0.00    +0.000 C 
ATOM      9  N   UNL     1       1.007  -0.472  -0.009  0.00  0.00    +0.000 N 
ATOM     10  H   UNL     1       0.438  -0.486  -0.842  0.00  0.00    +0.000 HD
ATOM     11  H   UNL     1       0.669  -0.899   0.839  0.00  0.00    +0.000 HD
ENDBRANCH   1   8
TORSDOF 1
