REMARK  Name = opt36.pdb
REMARK  4 active torsions:
REMARK  status: ('A' for Active; 'I' for Inactive)
REMARK    1  A    between atoms: C_2  and  C_4
REMARK    2  A    between atoms: C_4  and  C_5
REMARK    3  A    between atoms: C_5  and  C_6
REMARK    4  A    between atoms: C_11  and  O_12
REMARK                            x       y       z     vdW  Elec       q    Type
REMARK                         _______ _______ _______ _____ _____    ______ ____
ROOT
ATOM      1  C   UNL     1       5.277  -1.346  -2.040  0.00  0.00    +0.000 A 
ATOM      2  C   UNL     1       5.134  -2.719  -2.247  0.00  0.00    +0.000 A 
ATOM      3  C   UNL     1       6.069  -0.600  -2.917  0.00  0.00    +0.000 A 
ATOM      4  C   UNL     1       5.778  -3.342  -3.314  0.00  0.00    +0.000 A 
ATOM      5  C   UNL     1       6.709  -1.221  -3.988  0.00  0.00    +0.000 A 
ATOM      6  C   UNL     1       6.565  -2.593  -4.188  0.00  0.00    +0.000 A 
ENDROOT
BRANCH   6   7
ATOM      7  O   UNL     1       7.192  -3.198  -5.238  0.00  0.00    +0.000 OA
ATOM      8  H   UNL     1       7.003  -4.153  -5.219  0.00  0.00    +0.000 HD
ENDBRANCH   6   7
BRANCH   1   9
ATOM      9  C   UNL     1       4.567  -0.671  -0.875  0.00  0.00    +0.000 C 
BRANCH   9  10
ATOM     10  C   UNL     1       5.144  -1.090   0.496  0.00  0.00    +0.000 C 
BRANCH  10  12
ATOM     11  O   UNL     1       4.696  -0.898   2.774  0.00  0.00    +0.000 OA
ATOM     12  C   UNL     1       4.428  -0.456   1.676  0.00  0.00    +0.000 C 
ATOM     13  O   UNL     1       3.640   0.448   1.474  0.00  0.00    +0.000 OA
ENDBRANCH  10  12
ENDBRANCH   9  10
ENDBRANCH   1   9
TORSDOF 4
