REMARK  Name = opt32.pdb
REMARK  9 active torsions:
REMARK  status: ('A' for Active; 'I' for Inactive)
REMARK    1  A    between atoms: C_2  and  O_4
REMARK    2  A    between atoms: C_3  and  C_7
REMARK    3  A    between atoms: O_4  and  C_8
REMARK    4  A    between atoms: C_5  and  O_9
REMARK    5  A    between atoms: C_6  and  O_11
REMARK    6  A    between atoms: C_7  and  O_12
REMARK    7  A    between atoms: C_10  and  O_15
REMARK    8  A    between atoms: C_13  and  C_17
REMARK    9  A    between atoms: C_17  and  O_20
REMARK                            x       y       z     vdW  Elec       q    Type
REMARK                         _______ _______ _______ _____ _____    ______ ____
ROOT
ATOM      1  O   UNL     1      -1.090  -1.474  -0.032  0.00  0.00    +0.000 OA
ATOM      2  C   UNL     1      -1.759  -0.300  -0.553  0.00  0.00    +0.000 C 
ATOM      3  C   UNL     1       0.252  -1.775  -0.475  0.00  0.00    +0.000 C 
ATOM      4  C   UNL     1      -0.869   0.979  -0.549  0.00  0.00    +0.000 C 
ATOM      5  C   UNL     1       1.124  -0.532  -0.242  0.00  0.00    +0.000 C 
ATOM      6  C   UNL     1       0.566   0.681  -1.012  0.00  0.00    +0.000 C 
ENDROOT
BRANCH   5   7
ATOM      7  O   UNL     1       2.444  -0.778  -0.697  0.00  0.00    +0.000 OA
ATOM      8  H   UNL     1       2.875   0.085  -0.610  0.00  0.00    +0.000 HD
ENDBRANCH   5   7
BRANCH   4   9
ATOM      9  O   UNL     1      -0.794   1.577   0.746  0.00  0.00    +0.000 OA
ATOM     10  H   UNL     1      -1.436   1.109   1.283  0.00  0.00    +0.000 HD
ENDBRANCH   4   9
BRANCH   6  11
ATOM     11  O   UNL     1       1.360   1.833  -0.715  0.00  0.00    +0.000 OA
ATOM     12  H   UNL     1       0.932   2.221   0.084  0.00  0.00    +0.000 HD
ENDBRANCH   6  11
BRANCH   3  13
ATOM     13  C   UNL     1       0.766  -2.955   0.380  0.00  0.00    +0.000 C 
BRANCH  13  14
ATOM     14  O   UNL     1       0.079  -4.152   0.028  0.00  0.00    +0.000 OA
ATOM     15  H   UNL     1       0.396  -4.410  -0.853  0.00  0.00    +0.000 HD
ENDBRANCH  13  14
ENDBRANCH   3  13
BRANCH   2  16
ATOM     16  O   UNL     1      -3.000  -0.045   0.167  0.00  0.00    +0.000 OA
BRANCH  16  17
ATOM     17  C   UNL     1      -3.271  -0.122   1.536  0.00  0.00    +0.000 A 
ATOM     18  C   UNL     1      -4.482   0.430   1.989  0.00  0.00    +0.000 A 
ATOM     19  C   UNL     1      -2.439  -0.771   2.464  0.00  0.00    +0.000 A 
ATOM     20  C   UNL     1      -4.844   0.307   3.334  0.00  0.00    +0.000 A 
ATOM     21  C   UNL     1      -2.820  -0.901   3.797  0.00  0.00    +0.000 A 
ATOM     22  C   UNL     1      -4.025  -0.367   4.233  0.00  0.00    +0.000 A 
BRANCH  18  23
ATOM     23  C   UNL     1      -5.418   1.179   1.048  0.00  0.00    +0.000 C 
BRANCH  23  24
ATOM     24  O   UNL     1      -6.740   0.649   1.136  0.00  0.00    +0.000 OA
ATOM     25  H   UNL     1      -6.677  -0.312   0.995  0.00  0.00    +0.000 HD
ENDBRANCH  23  24
ENDBRANCH  18  23
ENDBRANCH  16  17
ENDBRANCH   2  16
TORSDOF 9
