REMARK  Name = opt31.pdb
REMARK  4 active torsions:
REMARK  status: ('A' for Active; 'I' for Inactive)
REMARK    1  A    between atoms: C_2  and  O_3
REMARK    2  A    between atoms: C_2  and  C_4
REMARK    3  A    between atoms: O_3  and  C_5
REMARK    4  A    between atoms: C_6  and  O_8
REMARK                            x       y       z     vdW  Elec       q    Type
REMARK                         _______ _______ _______ _____ _____    ______ ____
ROOT
ATOM      1  C   UNL     1       2.935  -0.766  -1.002  0.00  0.00    +0.000 A 
ATOM      2  C   UNL     1       2.564  -0.673  -2.360  0.00  0.00    +0.000 A 
ATOM      3  C   UNL     1       4.023  -1.585  -0.665  0.00  0.00    +0.000 A 
ATOM      4  C   UNL     1       3.271  -1.383  -3.332  0.00  0.00    +0.000 A 
ATOM      5  C   UNL     1       4.723  -2.289  -1.642  0.00  0.00    +0.000 A 
ATOM      6  C   UNL     1       4.349  -2.187  -2.977  0.00  0.00    +0.000 A 
ENDROOT
BRANCH   1   8
ATOM      7  O   UNL     1       1.270   0.731  -0.129  0.00  0.00    +0.000 OA
ATOM      8  C   UNL     1       2.210  -0.013   0.090  0.00  0.00    +0.000 C 
BRANCH   8   9
ATOM      9  O   UNL     1       2.676  -0.220   1.346  0.00  0.00    +0.000 OA
ATOM     10  C   UNL     1       2.071   0.491   2.454  0.00  0.00    +0.000 C 
ENDBRANCH   8   9
ENDBRANCH   1   8
BRANCH   2  11
ATOM     11  O   UNL     1       1.516   0.093  -2.789  0.00  0.00    +0.000 OA
ATOM     12  H   UNL     1       1.101   0.534  -2.020  0.00  0.00    +0.000 HD
ENDBRANCH   2  11
TORSDOF 3
