REMARK  Name = opt33.pdb
REMARK  4 active torsions:
REMARK  status: ('A' for Active; 'I' for Inactive)
REMARK    1  A    between atoms: C_1  and  C_3
REMARK    2  A    between atoms: C_3  and  C_6
REMARK    3  A    between atoms: C_3  and  C_7
REMARK    4  A    between atoms: C_9  and  C_10
REMARK                            x       y       z     vdW  Elec       q    Type
REMARK                         _______ _______ _______ _____ _____    ______ ____
ROOT
ATOM      1  C   UNL     1       1.308  -0.383  -0.018  0.00  0.00    +0.000 C 
ATOM      2  C   UNL     1       0.982   0.910  -0.029  0.00  0.00    +0.000 C 
ATOM      3  C   UNL     1       0.263  -1.489  -0.021  0.00  0.00    +0.000 C 
ATOM      4  C   UNL     1      -0.274   1.344  -0.032  0.00  0.00    +0.000 C 
ATOM      5  C   UNL     1      -1.198  -0.984  -0.029  0.00  0.00    +0.000 C 
ATOM      6  C   UNL     1      -1.324   0.527  -0.028  0.00  0.00    +0.000 C 
ATOM      7  C   UNL     1      -2.749   1.043  -0.024  0.00  0.00    +0.000 C 
ENDROOT
BRANCH   1   8
ATOM      8  C   UNL     1       2.749  -0.891  -0.005  0.00  0.00    +0.000 C 
ATOM      9  C   UNL     1       3.284  -1.061  -1.442  0.00  0.00    +0.000 C 
ATOM     10  C   UNL     1       3.708  -0.004   0.822  0.00  0.00    +0.000 C 
ENDBRANCH   1   8
TORSDOF 1
