REMARK  Name = opt35.pdb
REMARK  4 active torsions:
REMARK  status: ('A' for Active; 'I' for Inactive)
REMARK    1  A    between atoms: C_2  and  C_4
REMARK    2  A    between atoms: C_4  and  C_5
REMARK    3  A    between atoms: C_8  and  O_10
REMARK    4  A    between atoms: C_11  and  O_12
REMARK                            x       y       z     vdW  Elec       q    Type
REMARK                         _______ _______ _______ _____ _____    ______ ____
ROOT
ATOM      1  C   UNL     1       4.668   0.776   0.717  0.00  0.00    +0.000 A 
ATOM      2  C   UNL     1       5.243  -0.495   0.641  0.00  0.00    +0.000 A 
ATOM      3  C   UNL     1       5.481   1.907   0.604  0.00  0.00    +0.000 A 
ATOM      4  C   UNL     1       6.619  -0.633   0.462  0.00  0.00    +0.000 A 
ATOM      5  C   UNL     1       6.858   1.770   0.426  0.00  0.00    +0.000 A 
ATOM      6  C   UNL     1       7.423   0.499   0.360  0.00  0.00    +0.000 A 
ENDROOT
BRANCH   4   7
ATOM      7  O   UNL     1       7.195  -1.871   0.393  0.00  0.00    +0.000 OA
ATOM      8  H   UNL     1       6.482  -2.532   0.376  0.00  0.00    +0.000 HD
ENDBRANCH   4   7
BRANCH   6   9
ATOM      9  O   UNL     1       8.764   0.330   0.196  0.00  0.00    +0.000 OA
ATOM     10  H   UNL     1       8.888  -0.642   0.157  0.00  0.00    +0.000 HD
ENDBRANCH   6   9
BRANCH   1  11
ATOM     11  C   UNL     1       3.168   0.921   0.934  0.00  0.00    +0.000 C 
BRANCH  11  13
ATOM     12  O   UNL     1       2.113  -0.945   0.003  0.00  0.00    +0.000 OA
ATOM     13  C   UNL     1       2.374   0.231  -0.154  0.00  0.00    +0.000 C 
ATOM     14  O   UNL     1       2.101   0.879  -1.143  0.00  0.00    +0.000 OA
ENDBRANCH  11  13
ENDBRANCH   1  11
TORSDOF 4
