REMARK  Name = opt30.pdb
REMARK  2 active torsions:
REMARK  status: ('A' for Active; 'I' for Inactive)
REMARK    1  A    between atoms: C_2  and  C_4
REMARK    2  A    between atoms: C_5  and  O_7
REMARK                            x       y       z     vdW  Elec       q    Type
REMARK                         _______ _______ _______ _____ _____    ______ ____
ROOT
ATOM      1  C   UNL     1       3.155   0.982  -0.723  0.00  0.00    +0.000 A 
ATOM      2  C   UNL     1       2.796   2.341  -0.807  0.00  0.00    +0.000 A 
ATOM      3  C   UNL     1       4.323   0.566  -1.374  0.00  0.00    +0.000 A 
ATOM      4  C   UNL     1       3.587   3.241  -1.519  0.00  0.00    +0.000 A 
ATOM      5  C   UNL     1       5.111   1.468  -2.087  0.00  0.00    +0.000 A 
ATOM      6  C   UNL     1       4.744   2.808  -2.159  0.00  0.00    +0.000 A 
ENDROOT
BRANCH   1   8
ATOM      7  O   UNL     1       1.317   0.312   0.607  0.00  0.00    +0.000 OA
ATOM      8  C   UNL     1       2.333  -0.038   0.039  0.00  0.00    +0.000 C 
ATOM      9  O   UNL     1       2.726  -1.189   0.056  0.00  0.00    +0.000 OA
ENDBRANCH   1   8
BRANCH   2  10
ATOM     10  O   UNL     1       1.673   2.812  -0.198  0.00  0.00    +0.000 OA
ATOM     11  H   UNL     1       1.288   1.999   0.235  0.00  0.00    +0.000 HD
ENDBRANCH   2  10
TORSDOF 2
