REMARK  Name = opt37.pdb
REMARK  3 active torsions:
REMARK  status: ('A' for Active; 'I' for Inactive)
REMARK    1  A    between atoms: C_2  and  C_4
REMARK    2  A    between atoms: C_4  and  C_5
REMARK    3  A    between atoms: C_8  and  O_10
REMARK                            x       y       z     vdW  Elec       q    Type
REMARK                         _______ _______ _______ _____ _____    ______ ____
ROOT
ATOM      1  C   UNL     1       4.619   0.158   1.066  0.00  0.00    +0.000 A 
ATOM      2  C   UNL     1       5.312  -1.049   0.956  0.00  0.00    +0.000 A 
ATOM      3  C   UNL     1       5.316   1.363   0.947  0.00  0.00    +0.000 A 
ATOM      4  C   UNL     1       6.689  -1.054   0.737  0.00  0.00    +0.000 A 
ATOM      5  C   UNL     1       6.693   1.359   0.728  0.00  0.00    +0.000 A 
ATOM      6  C   UNL     1       7.380   0.151   0.626  0.00  0.00    +0.000 A 
ENDROOT
BRANCH   4   7
ATOM      7  O   UNL     1       7.362  -2.236   0.633  0.00  0.00    +0.000 OA
ATOM      8  H   UNL     1       6.707  -2.959   0.625  0.00  0.00    +0.000 HD
ENDBRANCH   4   7
BRANCH   1   9
ATOM      9  C   UNL     1       3.118   0.154   1.324  0.00  0.00    +0.000 C 
BRANCH   9  11
ATOM     10  O   UNL     1       2.175  -1.732   0.316  0.00  0.00    +0.000 OA
ATOM     11  C   UNL     1       2.359  -0.536   0.211  0.00  0.00    +0.000 C 
ATOM     12  O   UNL     1       2.027   0.140  -0.742  0.00  0.00    +0.000 OA
ENDBRANCH   9  11
ENDBRANCH   1   9
TORSDOF 3
