REMARK  Name = opt43.pdb
REMARK  10 active torsions:
REMARK  status: ('A' for Active; 'I' for Inactive)
REMARK    1  A    between atoms: O_1  and  C_2
REMARK    2  A    between atoms: O_1  and  C_3
REMARK    3  A    between atoms: C_4  and  O_6
REMARK    4  A    between atoms: O_6  and  C_9
REMARK    5  A    between atoms: C_11  and  C_14
REMARK    6  A    between atoms: C_14  and  C_16
REMARK    7  A    between atoms: C_19  and  O_21
REMARK    8  A    between atoms: O_21  and  C_23
REMARK    9  A    between atoms: C_22  and  O_24
REMARK   10  A    between atoms: O_24  and  C_25
REMARK                            x       y       z     vdW  Elec       q    Type
REMARK                         _______ _______ _______ _____ _____    ______ ____
ROOT
ATOM      1  C   UNL     1       0.394   1.160   0.805  0.00  0.00    +0.000 A 
ATOM      2  C   UNL     1       0.687   2.485   1.185  0.00  0.00    +0.000 A 
ATOM      3  C   UNL     1      -0.748   0.532   1.325  0.00  0.00    +0.000 A 
ATOM      4  C   UNL     1      -0.157   3.143   2.075  0.00  0.00    +0.000 A 
ATOM      5  C   UNL     1      -1.595   1.198   2.221  0.00  0.00    +0.000 A 
ATOM      6  C   UNL     1      -1.285   2.513   2.589  0.00  0.00    +0.000 A 
ATOM      7  C   UNL     1      -2.739   0.604   2.789  0.00  0.00    +0.000 A 
ATOM      8  C   UNL     1      -2.106   3.185   3.492  0.00  0.00    +0.000 A 
ATOM      9  N   UNL     1      -3.542   1.267   3.657  0.00  0.00    +0.000 NA
ATOM     10  C   UNL     1      -3.226   2.534   3.995  0.00  0.00    +0.000 A 
ENDROOT
BRANCH   2  11
ATOM     11  O   UNL     1       1.784   3.225   0.757  0.00  0.00    +0.000 OA
ATOM     12  C   UNL     1       2.753   2.813  -0.235  0.00  0.00    +0.000 C 
ENDBRANCH   2  11
BRANCH   1  13
ATOM     13  O   UNL     1       1.252   0.477  -0.049  0.00  0.00    +0.000 OA
ATOM     14  C   UNL     1       1.158  -0.928  -0.377  0.00  0.00    +0.000 C 
ENDBRANCH   1  13
BRANCH   7  15
ATOM     15  C   UNL     1      -3.122  -0.865   2.602  0.00  0.00    +0.000 C 
BRANCH  15  16
ATOM     16  C   UNL     1      -2.397  -1.746   3.613  0.00  0.00    +0.000 A 
ATOM     17  C   UNL     1      -2.644  -1.576   4.977  0.00  0.00    +0.000 A 
ATOM     18  C   UNL     1      -1.467  -2.697   3.201  0.00  0.00    +0.000 A 
ATOM     19  C   UNL     1      -1.941  -2.315   5.941  0.00  0.00    +0.000 A 
ATOM     20  C   UNL     1      -0.778  -3.452   4.146  0.00  0.00    +0.000 A 
ATOM     21  C   UNL     1      -0.989  -3.261   5.512  0.00  0.00    +0.000 A 
BRANCH  21  22
ATOM     22  O   UNL     1      -0.211  -4.046   6.354  0.00  0.00    +0.000 OA
ATOM     23  C   UNL     1      -0.023  -3.815   7.770  0.00  0.00    +0.000 C 
ENDBRANCH  21  22
BRANCH  19  24
ATOM     24  O   UNL     1      -2.176  -2.102   7.294  0.00  0.00    +0.000 OA
ATOM     25  C   UNL     1      -3.075  -1.095   7.816  0.00  0.00    +0.000 C 
ENDBRANCH  19  24
ENDBRANCH  15  16
ENDBRANCH   7  15
TORSDOF 6
