REMARK  Name = opt44.pdb
REMARK  3 active torsions:
REMARK  status: ('A' for Active; 'I' for Inactive)
REMARK    1  A    between atoms: C_5  and  O_9
REMARK    2  A    between atoms: C_7  and  O_13
REMARK    3  A    between atoms: C_16  and  C_19
REMARK                            x       y       z     vdW  Elec       q    Type
REMARK                         _______ _______ _______ _____ _____    ______ ____
ROOT
ATOM      1  O   UNL     1       0.008  -2.341   0.017  0.00  0.00    +0.000 OA
ATOM      2  C   UNL     1       0.012  -1.122   0.011  0.00  0.00    +0.000 C 
ATOM      3  C   UNL     1       1.310  -0.355   0.005  0.00  0.00    +0.000 A 
ATOM      4  C   UNL     1      -1.290  -0.362   0.009  0.00  0.00    +0.000 A 
ATOM      5  C   UNL     1       2.550  -1.023  -0.003  0.00  0.00    +0.000 A 
ATOM      6  C   UNL     1       1.295   1.046   0.009  0.00  0.00    +0.000 A 
ATOM      7  C   UNL     1      -2.529  -1.035   0.018  0.00  0.00    +0.000 A 
ATOM      8  C   UNL     1      -1.282   1.039  -0.006  0.00  0.00    +0.000 A 
ATOM      9  C   UNL     1       3.741  -0.299   0.003  0.00  0.00    +0.000 A 
ATOM     10  C   UNL     1       0.003   1.806   0.000  0.00  0.00    +0.000 C 
ATOM     11  C   UNL     1       2.499   1.757   0.017  0.00  0.00    +0.000 A 
ATOM     12  C   UNL     1      -3.724  -0.319  -0.002  0.00  0.00    +0.000 A 
ATOM     13  C   UNL     1      -2.492   1.744  -0.025  0.00  0.00    +0.000 A 
ATOM     14  C   UNL     1       3.727   1.096   0.017  0.00  0.00    +0.000 A 
ATOM     15  O   UNL     1      -0.013   3.023  -0.005  0.00  0.00    +0.000 OA
ATOM     16  C   UNL     1      -3.707   1.069  -0.027  0.00  0.00    +0.000 A 
ENDROOT
BRANCH  14  17
ATOM     17  C   UNL     1       5.011   1.876   0.028  0.00  0.00    +0.000 C 
ATOM     18  O   UNL     1       6.057   1.259   0.026  0.00  0.00    +0.000 OA
ATOM     19  O   UNL     1       4.946   3.089   0.040  0.00  0.00    +0.000 OA
ENDBRANCH  14  17
BRANCH   5  20
ATOM     20  O   UNL     1       2.630  -2.391  -0.023  0.00  0.00    +0.000 OA
ATOM     21  H   UNL     1       1.711  -2.752  -0.035  0.00  0.00    +0.000 HD
ENDBRANCH   5  20
BRANCH   7  22
ATOM     22  O   UNL     1      -2.615  -2.399   0.050  0.00  0.00    +0.000 OA
ATOM     23  H   UNL     1      -1.693  -2.761   0.073  0.00  0.00    +0.000 HD
ENDBRANCH   7  22
TORSDOF 3
