REMARK  Name = opt46.pdb
REMARK  4 active torsions:
REMARK  status: ('A' for Active; 'I' for Inactive)
REMARK    1  A    between atoms: C_5  and  O_9
REMARK    2  A    between atoms: C_7  and  O_13
REMARK    3  A    between atoms: C_16  and  O_19
REMARK    4  A    between atoms: C_18  and  C_20
REMARK                            x       y       z     vdW  Elec       q    Type
REMARK                         _______ _______ _______ _____ _____    ______ ____
ROOT
ATOM      1  O   UNL     1       0.913   0.087   0.036  0.00  0.00    +0.000 OA
ATOM      2  C   UNL     1       2.130   0.081   0.037  0.00  0.00    +0.000 C 
ATOM      3  C   UNL     1       2.897   1.374   0.038  0.00  0.00    +0.000 A 
ATOM      4  C   UNL     1       2.888  -1.219   0.037  0.00  0.00    +0.000 A 
ATOM      5  C   UNL     1       2.221   2.608   0.039  0.00  0.00    +0.000 A 
ATOM      6  C   UNL     1       4.298   1.359   0.039  0.00  0.00    +0.000 A 
ATOM      7  C   UNL     1       2.204  -2.448   0.037  0.00  0.00    +0.000 A 
ATOM      8  C   UNL     1       4.289  -1.218   0.037  0.00  0.00    +0.000 A 
ATOM      9  C   UNL     1       2.937   3.802   0.041  0.00  0.00    +0.000 A 
ATOM     10  C   UNL     1       5.058   0.068   0.038  0.00  0.00    +0.000 C 
ATOM     11  C   UNL     1       5.004   2.567   0.040  0.00  0.00    +0.000 A 
ATOM     12  C   UNL     1       2.909  -3.648   0.038  0.00  0.00    +0.000 A 
ATOM     13  C   UNL     1       4.984  -2.433   0.038  0.00  0.00    +0.000 A 
ATOM     14  C   UNL     1       4.327   3.781   0.042  0.00  0.00    +0.000 A 
ATOM     15  O   UNL     1       6.274   0.064   0.038  0.00  0.00    +0.000 OA
ATOM     16  C   UNL     1       4.302  -3.648   0.038  0.00  0.00    +0.000 A 
ATOM     17  C   UNL     1       5.074  -4.955   0.039  0.00  0.00    +0.000 C 
ENDROOT
BRANCH   5  18
ATOM     18  O   UNL     1       0.855   2.680   0.038  0.00  0.00    +0.000 OA
ATOM     19  H   UNL     1       0.501   1.749   0.037  0.00  0.00    +0.000 HD
ENDBRANCH   5  18
BRANCH   7  20
ATOM     20  O   UNL     1       0.839  -2.505   0.037  0.00  0.00    +0.000 OA
ATOM     21  H   UNL     1       0.498  -1.569   0.037  0.00  0.00    +0.000 HD
ENDBRANCH   7  20
BRANCH  14  22
ATOM     22  O   UNL     1       5.027   4.948   0.045  0.00  0.00    +0.000 OA
ATOM     23  H   UNL     1       4.401   5.692   0.048  0.00  0.00    +0.000 HD
ENDBRANCH  14  22
TORSDOF 3
