REMARK  Name = opt41.pdb
REMARK  17 active torsions:
REMARK  status: ('A' for Active; 'I' for Inactive)
REMARK    1  A    between atoms: C_3  and  O_5
REMARK    2  A    between atoms: O_5  and  C_9
REMARK    3  A    between atoms: C_6  and  C_11
REMARK    4  A    between atoms: C_8  and  O_13
REMARK    5  A    between atoms: C_16  and  O_21
REMARK    6  A    between atoms: C_19  and  O_25
REMARK    7  A    between atoms: C_20  and  C_27
REMARK    8  A    between atoms: C_22  and  O_28
REMARK    9  A    between atoms: C_23  and  O_29
REMARK   10  A    between atoms: C_26  and  O_31
REMARK   11  A    between atoms: C_27  and  O_32
REMARK   12  A    between atoms: C_30  and  O_33
REMARK   13  A    between atoms: O_32  and  C_34
REMARK   14  A    between atoms: C_36  and  O_38
REMARK   15  A    between atoms: C_37  and  C_41
REMARK   16  A    between atoms: C_39  and  O_42
REMARK   17  A    between atoms: C_40  and  O_43
REMARK                            x       y       z     vdW  Elec       q    Type
REMARK                         _______ _______ _______ _____ _____    ______ ____
ROOT
ATOM      1  C   UNL     1      -4.847  -0.385   0.538  0.00  0.00    +0.000 C 
ATOM      2  O   UNL     1      -4.169  -1.019  -0.570  0.00  0.00    +0.000 OA
ATOM      3  C   UNL     1      -5.302  -1.524   1.442  0.00  0.00    +0.000 C 
ATOM      4  C   UNL     1      -2.885  -1.607  -0.282  0.00  0.00    +0.000 C 
ATOM      5  C   UNL     1      -4.054  -2.215   1.980  0.00  0.00    +0.000 C 
ATOM      6  C   UNL     1      -3.018  -2.629   0.892  0.00  0.00    +0.000 C 
ENDROOT
BRANCH   3   7
ATOM      7  O   UNL     1      -6.142  -2.442   0.697  0.00  0.00    +0.000 OA
ATOM      8  H   UNL     1      -5.633  -2.957   0.030  0.00  0.00    +0.000 HD
ENDBRANCH   3   7
BRANCH   5   9
ATOM      9  O   UNL     1      -4.494  -3.358   2.687  0.00  0.00    +0.000 OA
ATOM     10  H   UNL     1      -3.710  -3.660   3.132  0.00  0.00    +0.000 HD
ENDBRANCH   5   9
BRANCH   6  11
ATOM     11  O   UNL     1      -1.758  -2.744   1.569  0.00  0.00    +0.000 OA
ATOM     12  H   UNL     1      -1.112  -2.123   1.171  0.00  0.00    +0.000 HD
ENDBRANCH   6  11
BRANCH   1  13
ATOM     13  O   UNL     1      -3.974   0.620   1.178  0.00  0.00    +0.000 OA
BRANCH  13  16
ATOM     14  O   UNL     1      -5.036   1.454  -1.400  0.00  0.00    +0.000 OA
ATOM     15  C   UNL     1      -4.010   1.916  -0.938  0.00  0.00    +0.000 A 
ATOM     16  C   UNL     1      -3.402   1.660   0.426  0.00  0.00    +0.000 A 
ATOM     17  C   UNL     1      -3.297   2.910  -1.710  0.00  0.00    +0.000 A 
ATOM     18  C   UNL     1      -2.468   2.242   0.791  0.00  0.00    +0.000 A 
ATOM     19  C   UNL     1      -2.422   3.670  -0.990  0.00  0.00    +0.000 A 
ATOM     20  C   UNL     1      -3.601   3.250  -3.075  0.00  0.00    +0.000 A 
ATOM     21  O   UNL     1      -2.306   3.278   0.347  0.00  0.00    +0.000 OA
ATOM     22  C   UNL     1      -2.187   5.022  -1.475  0.00  0.00    +0.000 A 
ATOM     23  C   UNL     1      -3.304   4.507  -3.565  0.00  0.00    +0.000 A 
ATOM     24  C   UNL     1      -2.636   5.412  -2.751  0.00  0.00    +0.000 A 
BRANCH  18  25
ATOM     25  C   UNL     1      -1.205   2.063   1.678  0.00  0.00    +0.000 A 
ATOM     26  C   UNL     1      -0.972   0.876   2.431  0.00  0.00    +0.000 A 
ATOM     27  C   UNL     1      -0.190   3.058   1.782  0.00  0.00    +0.000 A 
ATOM     28  C   UNL     1       0.206   0.692   3.187  0.00  0.00    +0.000 A 
ATOM     29  C   UNL     1       0.960   2.873   2.550  0.00  0.00    +0.000 A 
ATOM     30  C   UNL     1       1.177   1.688   3.244  0.00  0.00    +0.000 A 
BRANCH  28  31
ATOM     31  O   UNL     1       0.487  -0.471   3.857  0.00  0.00    +0.000 OA
ATOM     32  H   UNL     1      -0.294  -0.895   4.240  0.00  0.00    +0.000 HD
ENDBRANCH  28  31
BRANCH  30  33
ATOM     33  O   UNL     1       2.332   1.521   3.980  0.00  0.00    +0.000 OA
ATOM     34  H   UNL     1       2.384   0.636   4.422  0.00  0.00    +0.000 HD
ENDBRANCH  30  33
ENDBRANCH  18  25
BRANCH  20  35
ATOM     35  O   UNL     1      -4.194   2.307  -3.863  0.00  0.00    +0.000 OA
ATOM     36  H   UNL     1      -4.491   1.578  -3.266  0.00  0.00    +0.000 HD
ENDBRANCH  20  35
BRANCH  24  37
ATOM     37  O   UNL     1      -2.440   6.659  -3.267  0.00  0.00    +0.000 OA
ATOM     38  H   UNL     1      -2.100   7.275  -2.611  0.00  0.00    +0.000 HD
ENDBRANCH  24  37
ENDBRANCH  13  16
ENDBRANCH   1  13
BRANCH   4  39
ATOM     39  C   UNL     1      -2.442  -2.214  -1.638  0.00  0.00    +0.000 C 
BRANCH  39  40
ATOM     40  O   UNL     1      -1.003  -2.225  -1.782  0.00  0.00    +0.000 OA
BRANCH  40  41
ATOM     41  C   UNL     1      -0.346  -3.399  -1.269  0.00  0.00    +0.000 C 
ATOM     42  O   UNL     1      -0.617  -4.583  -2.064  0.00  0.00    +0.000 OA
ATOM     43  C   UNL     1       1.167  -3.138  -1.173  0.00  0.00    +0.000 C 
ATOM     44  C   UNL     1      -0.049  -4.641  -3.398  0.00  0.00    +0.000 C 
ATOM     45  C   UNL     1       1.849  -3.190  -2.560  0.00  0.00    +0.000 C 
ATOM     46  C   UNL     1       1.488  -4.498  -3.301  0.00  0.00    +0.000 C 
ATOM     47  C   UNL     1      -0.450  -6.003  -3.998  0.00  0.00    +0.000 C 
BRANCH  45  48
ATOM     48  O   UNL     1       3.261  -3.131  -2.354  0.00  0.00    +0.000 OA
ATOM     49  H   UNL     1       3.432  -3.675  -1.557  0.00  0.00    +0.000 HD
ENDBRANCH  45  48
BRANCH  46  50
ATOM     50  O   UNL     1       2.063  -4.516  -4.616  0.00  0.00    +0.000 OA
ATOM     51  H   UNL     1       2.444  -3.644  -4.821  0.00  0.00    +0.000 HD
ENDBRANCH  46  50
BRANCH  43  52
ATOM     52  O   UNL     1       1.692  -4.161  -0.333  0.00  0.00    +0.000 OA
ATOM     53  H   UNL     1       1.128  -4.934  -0.514  0.00  0.00    +0.000 HD
ENDBRANCH  43  52
ENDBRANCH  40  41
ENDBRANCH  39  40
ENDBRANCH   4  39
TORSDOF 16
