REMARK  Name = opt49.pdb
REMARK  2 active torsions:
REMARK  status: ('A' for Active; 'I' for Inactive)
REMARK    1  A    between atoms: C_4  and  C_7
REMARK    2  A    between atoms: N_8  and  C_11
REMARK                            x       y       z     vdW  Elec       q    Type
REMARK                         _______ _______ _______ _____ _____    ______ ____
ROOT
ATOM      1  N   UNL     1      -2.160   3.928  -0.992  0.00  0.00    +0.000 NA
ATOM      2  C   UNL     1      -1.029   3.190  -0.905  0.00  0.00    +0.000 A 
ATOM      3  C   UNL     1      -2.241   5.044  -0.234  0.00  0.00    +0.000 A 
ATOM      4  C   UNL     1       0.051   3.526  -0.084  0.00  0.00    +0.000 A 
ATOM      5  C   UNL     1      -1.217   5.449   0.619  0.00  0.00    +0.000 A 
ATOM      6  C   UNL     1      -0.056   4.684   0.694  0.00  0.00    +0.000 A 
ENDROOT
BRANCH   4   7
ATOM      7  C   UNL     1       1.299   2.632  -0.092  0.00  0.00    +0.000 C 
ATOM      8  N   UNL     1       2.331   3.060  -1.061  0.00  0.00    +0.000 NA
ATOM      9  C   UNL     1       2.088   2.624   1.233  0.00  0.00    +0.000 C 
ATOM     10  C   UNL     1       3.112   4.126  -0.412  0.00  0.00    +0.000 C 
ATOM     11  C   UNL     1       1.875   3.366  -2.434  0.00  0.00    +0.000 C 
ATOM     12  C   UNL     1       3.207   3.674   1.056  0.00  0.00    +0.000 C 
ENDBRANCH   4   7
TORSDOF 1
