REMARK  Name = opt42.pdb
REMARK  5 active torsions:
REMARK  status: ('A' for Active; 'I' for Inactive)
REMARK    1  A    between atoms: O_1  and  C_2
REMARK    2  A    between atoms: O_1  and  C_3
REMARK    3  A    between atoms: C_4  and  O_6
REMARK    4  A    between atoms: C_8  and  C_10
REMARK    5  A    between atoms: C_10  and  C_11
REMARK                            x       y       z     vdW  Elec       q    Type
REMARK                         _______ _______ _______ _____ _____    ______ ____
ROOT
ATOM      1  C   UNL     1       0.851  -0.128   0.066  0.00  0.00    +0.000 A 
ATOM      2  C   UNL     1       0.113  -1.325   0.013  0.00  0.00    +0.000 A 
ATOM      3  C   UNL     1       0.168   1.089   0.068  0.00  0.00    +0.000 A 
ATOM      4  C   UNL     1      -1.279  -1.279  -0.055  0.00  0.00    +0.000 A 
ATOM      5  C   UNL     1      -1.226   1.134   0.016  0.00  0.00    +0.000 A 
ATOM      6  C   UNL     1      -1.947  -0.058  -0.054  0.00  0.00    +0.000 A 
ENDROOT
BRANCH   1   7
ATOM      7  O   UNL     1       2.239  -0.045   0.130  0.00  0.00    +0.000 OA
ATOM      8  C   UNL     1       3.195  -1.118  -0.039  0.00  0.00    +0.000 C 
ENDBRANCH   1   7
BRANCH   2   9
ATOM      9  O   UNL     1       0.711  -2.547   0.045  0.00  0.00    +0.000 OA
ATOM     10  H   UNL     1       1.662  -2.400   0.178  0.00  0.00    +0.000 HD
ENDBRANCH   2   9
BRANCH   5  11
ATOM     11  C   UNL     1      -1.953   2.468   0.043  0.00  0.00    +0.000 C 
BRANCH  11  12
ATOM     12  C   UNL     1      -2.225   2.989  -1.347  0.00  0.00    +0.000 C 
ATOM     13  C   UNL     1      -3.446   3.298  -1.805  0.00  0.00    +0.000 C 
ENDBRANCH  11  12
ENDBRANCH   5  11
TORSDOF 4
