REMARK  Name = opt45.pdb
REMARK  10 active torsions:
REMARK  status: ('A' for Active; 'I' for Inactive)
REMARK    1  A    between atoms: C_5  and  O_9
REMARK    2  A    between atoms: C_7  and  O_13
REMARK    3  A    between atoms: C_12  and  C_17
REMARK    4  A    between atoms: C_16  and  C_19
REMARK    5  A    between atoms: C_19  and  O_22
REMARK    6  A    between atoms: C_21  and  O_24
REMARK    7  A    between atoms: C_23  and  C_27
REMARK    8  A    between atoms: C_25  and  O_28
REMARK    9  A    between atoms: C_26  and  O_29
REMARK   10  A    between atoms: C_27  and  O_30
REMARK                            x       y       z     vdW  Elec       q    Type
REMARK                         _______ _______ _______ _____ _____    ______ ____
ROOT
ATOM      1  O   UNL     1       0.759  -0.090   0.281  0.00  0.00    +0.000 OA
ATOM      2  C   UNL     1       1.953  -0.025   0.056  0.00  0.00    +0.000 C 
ATOM      3  C   UNL     1       2.629   1.279  -0.223  0.00  0.00    +0.000 A 
ATOM      4  C   UNL     1       2.798  -1.250  -0.079  0.00  0.00    +0.000 A 
ATOM      5  C   UNL     1       1.904   2.474  -0.271  0.00  0.00    +0.000 A 
ATOM      6  C   UNL     1       4.011   1.293  -0.452  0.00  0.00    +0.000 A 
ATOM      7  C   UNL     1       2.216  -2.528  -0.067  0.00  0.00    +0.000 A 
ATOM      8  C   UNL     1       4.187  -1.110  -0.223  0.00  0.00    +0.000 A 
ATOM      9  C   UNL     1       2.556   3.681  -0.492  0.00  0.00    +0.000 A 
ATOM     10  C   UNL     1       4.613   2.485  -0.871  0.00  0.00    +0.000 A 
ATOM     11  C   UNL     1       4.833   0.177   0.005  0.00  0.00    +0.000 C 
ATOM     12  C   UNL     1       3.014  -3.663  -0.167  0.00  0.00    +0.000 A 
ATOM     13  C   UNL     1       4.974  -2.266  -0.330  0.00  0.00    +0.000 A 
ATOM     14  C   UNL     1       3.921   3.698  -0.786  0.00  0.00    +0.000 A 
ATOM     15  C   UNL     1       4.392  -3.531  -0.297  0.00  0.00    +0.000 A 
ENDROOT
BRANCH  11  16
ATOM     16  C   UNL     1       5.779   0.268   1.203  0.00  0.00    +0.000 C 
ATOM     17  O   UNL     1       6.628   1.463   1.262  0.00  0.00    +0.000 OA
ATOM     18  C   UNL     1       5.046   0.078   2.552  0.00  0.00    +0.000 C 
ATOM     19  C   UNL     1       6.131   2.722   1.826  0.00  0.00    +0.000 C 
ATOM     20  C   UNL     1       4.339   1.381   2.980  0.00  0.00    +0.000 C 
ATOM     21  C   UNL     1       5.349   2.537   3.143  0.00  0.00    +0.000 C 
BRANCH  21  22
ATOM     22  O   UNL     1       4.599   3.733   3.399  0.00  0.00    +0.000 OA
ATOM     23  H   UNL     1       3.717   3.649   2.977  0.00  0.00    +0.000 HD
ENDBRANCH  21  22
BRANCH  18  24
ATOM     24  O   UNL     1       5.987  -0.331   3.550  0.00  0.00    +0.000 OA
ATOM     25  H   UNL     1       6.789   0.215   3.455  0.00  0.00    +0.000 HD
ENDBRANCH  18  24
BRANCH  20  26
ATOM     26  O   UNL     1       3.640   1.160   4.199  0.00  0.00    +0.000 OA
ATOM     27  H   UNL     1       4.276   0.742   4.801  0.00  0.00    +0.000 HD
ENDBRANCH  20  26
BRANCH  19  28
ATOM     28  C   UNL     1       7.295   3.731   1.906  0.00  0.00    +0.000 C 
BRANCH  28  29
ATOM     29  O   UNL     1       8.362   3.224   2.702  0.00  0.00    +0.000 OA
ATOM     30  H   UNL     1       8.852   2.590   2.150  0.00  0.00    +0.000 HD
ENDBRANCH  28  29
ENDBRANCH  19  28
ENDBRANCH  11  16
BRANCH   7  31
ATOM     31  O   UNL     1       0.861  -2.681   0.027  0.00  0.00    +0.000 OA
ATOM     32  H   UNL     1       0.460  -1.769   0.080  0.00  0.00    +0.000 HD
ENDBRANCH   7  31
BRANCH   5  33
ATOM     33  O   UNL     1       0.566   2.488  -0.014  0.00  0.00    +0.000 OA
ATOM     34  H   UNL     1       0.295   1.542   0.142  0.00  0.00    +0.000 HD
ENDBRANCH   5  33
BRANCH  14  35
ATOM     35  C   UNL     1       4.723   5.000  -0.785  0.00  0.00    +0.000 C 
BRANCH  35  36
ATOM     36  O   UNL     1       3.906   6.166  -0.840  0.00  0.00    +0.000 OA
ATOM     37  H   UNL     1       3.319   6.089  -1.606  0.00  0.00    +0.000 HD
ENDBRANCH  35  36
ENDBRANCH  14  35
TORSDOF 10
