REMARK  Name = opt47.pdb
REMARK  2 active torsions:
REMARK  status: ('A' for Active; 'I' for Inactive)
REMARK    1  A    between atoms: C_7  and  C_11
REMARK    2  A    between atoms: C_10  and  O_13
REMARK                            x       y       z     vdW  Elec       q    Type
REMARK                         _______ _______ _______ _____ _____    ______ ____
ROOT
ATOM      1  O   UNL     1      -1.503   2.425  -0.007  0.00  0.00    +0.000 OA
ATOM      2  C   UNL     1      -1.447   1.211   0.006  0.00  0.00    +0.000 A 
ATOM      3  C   UNL     1      -0.199   0.442   0.024  0.00  0.00    +0.000 A 
ATOM      4  C   UNL     1      -2.634   0.324  -0.027  0.00  0.00    +0.000 A 
ATOM      5  C   UNL     1      -0.356  -0.925  -0.003  0.00  0.00    +0.000 A 
ATOM      6  C   UNL     1       1.140   0.979   0.031  0.00  0.00    +0.000 A 
ATOM      7  C   UNL     1      -2.598  -0.806  -0.027  0.00  0.00    +0.000 A 
ATOM      8  O   UNL     1      -1.651  -1.418  -0.057  0.00  0.00    +0.000 OA
ATOM      9  C   UNL     1       0.798  -1.789  -0.013  0.00  0.00    +0.000 A 
ATOM     10  C   UNL     1       2.250   0.139   0.011  0.00  0.00    +0.000 A 
ATOM     11  C   UNL     1       2.079  -1.244  -0.009  0.00  0.00    +0.000 A 
ENDROOT
BRANCH   7  12
ATOM     12  C   UNL     1      -3.833  -1.685   0.006  0.00  0.00    +0.000 A 
ATOM     13  C   UNL     1      -3.823  -2.980  -0.555  0.00  0.00    +0.000 A 
ATOM     14  C   UNL     1      -5.038  -1.222   0.577  0.00  0.00    +0.000 A 
ATOM     15  C   UNL     1      -4.978  -3.761  -0.564  0.00  0.00    +0.000 A 
ATOM     16  C   UNL     1      -6.185  -2.013   0.564  0.00  0.00    +0.000 A 
ATOM     17  C   UNL     1      -6.159  -3.278  -0.011  0.00  0.00    +0.000 A 
ENDBRANCH   7  12
BRANCH  10  18
ATOM     18  O   UNL     1       3.508   0.664   0.009  0.00  0.00    +0.000 OA
ATOM     19  H   UNL     1       3.467   1.638   0.008  0.00  0.00    +0.000 HD
ENDBRANCH  10  18
TORSDOF 2
