REMARK  Name = opt53.pdb
REMARK  4 active torsions:
REMARK  status: ('A' for Active; 'I' for Inactive)
REMARK    1  A    between atoms: C_3  and  C_6
REMARK    2  A    between atoms: C_7  and  C_9
REMARK    3  A    between atoms: C_9  and  C_10
REMARK    4  A    between atoms: C_9  and  C_11
REMARK                            x       y       z     vdW  Elec       q    Type
REMARK                         _______ _______ _______ _____ _____    ______ ____
ROOT
ATOM      1  O   UNL     1       1.579   0.288   1.454  0.00  0.00    +0.000 OA
ATOM      2  C   UNL     1       2.573   0.098   0.782  0.00  0.00    +0.000 C 
ATOM      3  C   UNL     1       3.158   1.133  -0.161  0.00  0.00    +0.000 C 
ATOM      4  C   UNL     1       3.097  -1.288   0.480  0.00  0.00    +0.000 C 
ATOM      5  C   UNL     1       4.041   0.346  -1.150  0.00  0.00    +0.000 C 
ATOM      6  C   UNL     1       2.065   1.928  -0.904  0.00  0.00    +0.000 C 
ATOM      7  C   UNL     1       4.000  -1.138  -0.761  0.00  0.00    +0.000 C 
ATOM      8  C   UNL     1       5.279  -0.336  -0.597  0.00  0.00    +0.000 C 
ENDROOT
BRANCH   7   9
ATOM      9  C   UNL     1       3.948  -2.169  -1.921  0.00  0.00    +0.000 C 
ATOM     10  C   UNL     1       4.436  -3.548  -1.433  0.00  0.00    +0.000 C 
ATOM     11  C   UNL     1       2.536  -2.274  -2.538  0.00  0.00    +0.000 C 
ENDBRANCH   7   9
TORSDOF 1
