REMARK  Name = opt50.pdb
REMARK  7 active torsions:
REMARK  status: ('A' for Active; 'I' for Inactive)
REMARK    1  A    between atoms: C_2  and  O_3
REMARK    2  A    between atoms: C_2  and  C_4
REMARK    3  A    between atoms: O_3  and  C_5
REMARK    4  A    between atoms: C_4  and  C_6
REMARK    5  A    between atoms: C_4  and  C_7
REMARK    6  A    between atoms: C_7  and  O_12
REMARK    7  A    between atoms: N_17  and  C_21
REMARK                            x       y       z     vdW  Elec       q    Type
REMARK                         _______ _______ _______ _____ _____    ______ ____
ROOT
ATOM      1  O   UNL     1       4.379   0.753  -3.513  0.00  0.00    +0.000 OA
ATOM      2  C   UNL     1       5.054   1.159  -2.583  0.00  0.00    +0.000 C 
ENDROOT
BRANCH   2   3
ATOM      3  C   UNL     1       5.840   2.466  -2.625  0.00  0.00    +0.000 C 
BRANCH   3   4
ATOM      4  C   UNL     1       7.355   2.267  -2.683  0.00  0.00    +0.000 A 
ATOM      5  C   UNL     1       7.937   1.343  -3.562  0.00  0.00    +0.000 A 
ATOM      6  C   UNL     1       8.183   3.109  -1.940  0.00  0.00    +0.000 A 
ATOM      7  C   UNL     1       9.326   1.286  -3.699  0.00  0.00    +0.000 A 
ATOM      8  C   UNL     1       9.569   3.056  -2.079  0.00  0.00    +0.000 A 
ATOM      9  C   UNL     1      10.140   2.146  -2.966  0.00  0.00    +0.000 A 
ENDBRANCH   3   4
BRANCH   3  10
ATOM     10  C   UNL     1       5.417   3.360  -3.814  0.00  0.00    +0.000 C 
BRANCH  10  11
ATOM     11  O   UNL     1       4.061   3.796  -3.680  0.00  0.00    +0.000 OA
ATOM     12  H   UNL     1       3.485   3.011  -3.753  0.00  0.00    +0.000 HD
ENDBRANCH  10  11
ENDBRANCH   3  10
ENDBRANCH   2   3
BRANCH   2  13
ATOM     13  O   UNL     1       5.083   0.595  -1.354  0.00  0.00    +0.000 OA
BRANCH  13  14
ATOM     14  C   UNL     1       4.317  -0.604  -1.022  0.00  0.00    +0.000 C 
ATOM     15  C   UNL     1       4.686  -1.769  -2.001  0.00  0.00    +0.000 C 
ATOM     16  C   UNL     1       4.632  -0.899   0.481  0.00  0.00    +0.000 C 
ATOM     17  C   UNL     1       4.647  -3.164  -1.340  0.00  0.00    +0.000 C 
ATOM     18  C   UNL     1       4.652  -2.405   0.845  0.00  0.00    +0.000 C 
ATOM     19  N   UNL     1       5.520  -3.037  -0.163  0.00  0.00    +0.000 NA
ATOM     20  C   UNL     1       3.237  -3.505  -0.800  0.00  0.00    +0.000 C 
ATOM     21  C   UNL     1       3.264  -3.055   0.668  0.00  0.00    +0.000 C 
ATOM     22  C   UNL     1       6.290  -4.230   0.231  0.00  0.00    +0.000 C 
ENDBRANCH  13  14
ENDBRANCH   2  13
TORSDOF 6
