REMARK  Name = opt51.pdb
REMARK  4 active torsions:
REMARK  status: ('A' for Active; 'I' for Inactive)
REMARK    1  A    between atoms: C_5  and  O_9
REMARK    2  A    between atoms: C_7  and  O_13
REMARK    3  A    between atoms: C_16  and  C_19
REMARK    4  A    between atoms: C_19  and  O_20
REMARK                            x       y       z     vdW  Elec       q    Type
REMARK                         _______ _______ _______ _____ _____    ______ ____
ROOT
ATOM      1  O   UNL     1      -0.013  -2.352   0.013  0.00  0.00    +0.000 OA
ATOM      2  C   UNL     1      -0.009  -1.134   0.009  0.00  0.00    +0.000 C 
ATOM      3  C   UNL     1       1.293  -0.375   0.003  0.00  0.00    +0.000 A 
ATOM      4  C   UNL     1      -1.305  -0.366   0.010  0.00  0.00    +0.000 A 
ATOM      5  C   UNL     1       2.528  -1.051  -0.009  0.00  0.00    +0.000 A 
ATOM      6  C   UNL     1       1.288   1.026   0.013  0.00  0.00    +0.000 A 
ATOM      7  C   UNL     1      -2.545  -1.034   0.018  0.00  0.00    +0.000 A 
ATOM      8  C   UNL     1      -1.289   1.035   0.000  0.00  0.00    +0.000 A 
ATOM      9  C   UNL     1       3.725  -0.338  -0.002  0.00  0.00    +0.000 A 
ATOM     10  C   UNL     1       0.002   1.794   0.009  0.00  0.00    +0.000 C 
ATOM     11  C   UNL     1       2.499   1.727   0.027  0.00  0.00    +0.000 A 
ATOM     12  C   UNL     1      -3.737  -0.313   0.002  0.00  0.00    +0.000 A 
ATOM     13  C   UNL     1      -2.495   1.746  -0.015  0.00  0.00    +0.000 A 
ATOM     14  C   UNL     1       3.718   1.053   0.020  0.00  0.00    +0.000 A 
ATOM     15  O   UNL     1       0.006   3.010   0.011  0.00  0.00    +0.000 OA
ATOM     16  C   UNL     1      -3.713   1.075  -0.017  0.00  0.00    +0.000 A 
ENDROOT
BRANCH   5  17
ATOM     17  O   UNL     1       2.601  -2.416  -0.030  0.00  0.00    +0.000 OA
ATOM     18  H   UNL     1       1.676  -2.776  -0.032  0.00  0.00    +0.000 HD
ENDBRANCH   5  17
BRANCH   7  19
ATOM     19  O   UNL     1      -2.629  -2.398   0.046  0.00  0.00    +0.000 OA
ATOM     20  H   UNL     1      -1.707  -2.762   0.065  0.00  0.00    +0.000 HD
ENDBRANCH   7  19
BRANCH  14  21
ATOM     21  C   UNL     1       5.022   1.833   0.050  0.00  0.00    +0.000 C 
BRANCH  21  22
ATOM     22  O   UNL     1       5.103   2.710  -1.074  0.00  0.00    +0.000 OA
ATOM     23  H   UNL     1       5.082   2.177  -1.889  0.00  0.00    +0.000 HD
ENDBRANCH  21  22
ENDBRANCH  14  21
TORSDOF 4
