REMARK  Name = opt59.pdb
REMARK  3 active torsions:
REMARK  status: ('A' for Active; 'I' for Inactive)
REMARK    1  A    between atoms: C_3  and  C_6
REMARK    2  A    between atoms: C_8  and  C_11
REMARK    3  A    between atoms: C_16  and  C_18
REMARK                            x       y       z     vdW  Elec       q    Type
REMARK                         _______ _______ _______ _____ _____    ______ ____
ROOT
ATOM      1  O   UNL     1       3.887  -0.940   3.625  0.00  0.00    +0.000 OA
ATOM      2  C   UNL     1       4.137  -0.591   2.486  0.00  0.00    +0.000 C 
ATOM      3  C   UNL     1       4.310   0.771   2.135  0.00  0.00    +0.000 C 
ATOM      4  C   UNL     1       3.698  -1.385   1.413  0.00  0.00    +0.000 C 
ATOM      5  C   UNL     1       4.490   1.080   0.830  0.00  0.00    +0.000 C 
ATOM      6  C   UNL     1       4.145   1.789   3.261  0.00  0.00    +0.000 C 
ATOM      7  C   UNL     1       3.937  -0.956   0.176  0.00  0.00    +0.000 C 
ATOM      8  C   UNL     1       4.856   0.054  -0.050  0.00  0.00    +0.000 C 
ATOM      9  C   UNL     1       4.337   2.536   0.374  0.00  0.00    +0.000 C 
ATOM     10  C   UNL     1       5.021   0.413  -1.540  0.00  0.00    +0.000 C 
ATOM     11  C   UNL     1       6.311  -0.406   0.078  0.00  0.00    +0.000 C 
ATOM     12  O   UNL     1       5.464   3.339   0.801  0.00  0.00    +0.000 OA
ATOM     13  C   UNL     1       4.223   2.787  -1.146  0.00  0.00    +0.000 C 
ATOM     14  C   UNL     1       4.015   1.496  -1.966  0.00  0.00    +0.000 C 
ATOM     15  C   UNL     1       5.974   4.105  -0.181  0.00  0.00    +0.000 C 
ATOM     16  C   UNL     1       5.505   3.568  -1.508  0.00  0.00    +0.000 C 
ATOM     17  O   UNL     1       6.884   4.893  -0.031  0.00  0.00    +0.000 OA
ATOM     18  C   UNL     1       5.264   4.668  -2.561  0.00  0.00    +0.000 C 
ENDROOT
TORSDOF 0
