REMARK  Name = opt52.pdb
REMARK  13 active torsions:
REMARK  status: ('A' for Active; 'I' for Inactive)
REMARK    1  A    between atoms: C_2  and  C_4
REMARK    2  A    between atoms: N_3  and  C_5
REMARK    3  A    between atoms: C_4  and  C_6
REMARK    4  A    between atoms: C_5  and  C_7
REMARK    5  A    between atoms: C_6  and  C_8
REMARK    6  A    between atoms: C_8  and  C_11
REMARK    7  A    between atoms: C_11  and  C_14
REMARK    8  A    between atoms: C_12  and  O_15
REMARK    9  A    between atoms: O_15  and  C_18
REMARK   10  A    between atoms: C_16  and  O_19
REMARK   11  A    between atoms: C_17  and  C_20
REMARK   12  A    between atoms: C_20  and  C_21
REMARK   13  A    between atoms: C_20  and  C_22
REMARK                            x       y       z     vdW  Elec       q    Type
REMARK                         _______ _______ _______ _____ _____    ______ ____
ROOT
ATOM      1  O   UNL     1       1.691  -0.342  -1.227  0.00  0.00    +0.000 OA
ATOM      2  C   UNL     1       2.244  -0.173  -0.158  0.00  0.00    +0.000 C 
ATOM      3  N   UNL     1       2.276  -1.125   0.801  0.00  0.00    +0.000 N 
ATOM      4  H   UNL     1       2.790  -0.938   1.649  0.00  0.00    +0.000 HD
ENDROOT
BRANCH   3   5
ATOM      5  C   UNL     1       1.603  -2.426   0.705  0.00  0.00    +0.000 C 
BRANCH   5   6
ATOM      6  C   UNL     1       2.579  -3.567   0.480  0.00  0.00    +0.000 A 
ATOM      7  C   UNL     1       3.348  -3.614  -0.685  0.00  0.00    +0.000 A 
ATOM      8  C   UNL     1       2.689  -4.593   1.422  0.00  0.00    +0.000 A 
ATOM      9  C   UNL     1       4.221  -4.684  -0.910  0.00  0.00    +0.000 A 
ATOM     10  C   UNL     1       3.560  -5.657   1.203  0.00  0.00    +0.000 A 
ATOM     11  C   UNL     1       4.323  -5.700   0.039  0.00  0.00    +0.000 A 
BRANCH  11  12
ATOM     12  O   UNL     1       5.170  -6.737  -0.198  0.00  0.00    +0.000 OA
ATOM     13  H   UNL     1       5.577  -6.552  -1.070  0.00  0.00    +0.000 HD
ENDBRANCH  11  12
BRANCH   9  14
ATOM     14  O   UNL     1       4.990  -4.803  -2.058  0.00  0.00    +0.000 OA
ATOM     15  C   UNL     1       4.929  -3.856  -3.147  0.00  0.00    +0.000 C 
ENDBRANCH   9  14
ENDBRANCH   5   6
ENDBRANCH   3   5
BRANCH   2  16
ATOM     16  C   UNL     1       3.004   1.098   0.164  0.00  0.00    +0.000 C 
BRANCH  16  17
ATOM     17  C   UNL     1       4.535   0.890   0.151  0.00  0.00    +0.000 C 
BRANCH  17  18
ATOM     18  C   UNL     1       5.071   0.474  -1.238  0.00  0.00    +0.000 C 
BRANCH  18  19
ATOM     19  C   UNL     1       6.604   0.324  -1.203  0.00  0.00    +0.000 C 
BRANCH  19  20
ATOM     20  C   UNL     1       7.174  -0.038  -2.557  0.00  0.00    +0.000 C 
ATOM     21  C   UNL     1       7.858  -1.152  -2.790  0.00  0.00    +0.000 C 
BRANCH  21  22
ATOM     22  C   UNL     1       8.511  -1.481  -4.118  0.00  0.00    +0.000 C 
ATOM     23  C   UNL     1      10.025  -1.699  -3.922  0.00  0.00    +0.000 C 
ATOM     24  C   UNL     1       7.869  -2.728  -4.753  0.00  0.00    +0.000 C 
ENDBRANCH  21  22
ENDBRANCH  19  20
ENDBRANCH  18  19
ENDBRANCH  17  18
ENDBRANCH  16  17
ENDBRANCH   2  16
TORSDOF 10
