REMARK  Name = opt58.pdb
REMARK  10 active torsions:
REMARK  status: ('A' for Active; 'I' for Inactive)
REMARK    1  A    between atoms: C_6  and  O_10
REMARK    2  A    between atoms: C_7  and  C_12
REMARK    3  A    between atoms: C_13  and  O_16
REMARK    4  A    between atoms: O_16  and  C_19
REMARK    5  A    between atoms: C_20  and  O_23
REMARK    6  A    between atoms: C_22  and  O_25
REMARK    7  A    between atoms: C_24  and  C_28
REMARK    8  A    between atoms: C_26  and  O_29
REMARK    9  A    between atoms: C_27  and  O_30
REMARK   10  A    between atoms: C_28  and  O_31
REMARK                            x       y       z     vdW  Elec       q    Type
REMARK                         _______ _______ _______ _____ _____    ______ ____
ROOT
ATOM      1  O   UNL     1       1.293   2.272  -0.072  0.00  0.00    +0.000 OA
ATOM      2  C   UNL     1       1.332   1.061   0.032  0.00  0.00    +0.000 C 
ATOM      3  C   UNL     1       0.113   0.178  -0.075  0.00  0.00    +0.000 A 
ATOM      4  C   UNL     1       2.648   0.387   0.350  0.00  0.00    +0.000 C 
ATOM      5  C   UNL     1       0.273  -1.209   0.046  0.00  0.00    +0.000 A 
ATOM      6  C   UNL     1      -1.179   0.692  -0.273  0.00  0.00    +0.000 A 
ATOM      7  C   UNL     1       2.694  -1.032  -0.244  0.00  0.00    +0.000 C 
ATOM      8  O   UNL     1       1.529  -1.762   0.207  0.00  0.00    +0.000 OA
ATOM      9  C   UNL     1      -0.829  -2.059   0.022  0.00  0.00    +0.000 A 
ATOM     10  C   UNL     1      -2.278  -0.163  -0.308  0.00  0.00    +0.000 A 
ATOM     11  C   UNL     1      -2.115  -1.535  -0.139  0.00  0.00    +0.000 A 
ENDROOT
BRANCH   7  12
ATOM     12  C   UNL     1       3.960  -1.762   0.172  0.00  0.00    +0.000 A 
ATOM     13  C   UNL     1       4.024  -2.457   1.383  0.00  0.00    +0.000 A 
ATOM     14  C   UNL     1       5.089  -1.696  -0.645  0.00  0.00    +0.000 A 
ATOM     15  C   UNL     1       5.206  -3.083   1.769  0.00  0.00    +0.000 A 
ATOM     16  C   UNL     1       6.273  -2.318  -0.257  0.00  0.00    +0.000 A 
ATOM     17  C   UNL     1       6.330  -3.010   0.949  0.00  0.00    +0.000 A 
BRANCH  17  18
ATOM     18  O   UNL     1       7.489  -3.607   1.332  0.00  0.00    +0.000 OA
ATOM     19  H   UNL     1       7.346  -4.033   2.194  0.00  0.00    +0.000 HD
ENDBRANCH  17  18
ENDBRANCH   7  12
BRANCH   6  20
ATOM     20  O   UNL     1      -1.400   2.031  -0.393  0.00  0.00    +0.000 OA
ATOM     21  H   UNL     1      -0.534   2.482  -0.285  0.00  0.00    +0.000 HD
ENDBRANCH   6  20
BRANCH  11  22
ATOM     22  O   UNL     1      -3.253  -2.321  -0.085  0.00  0.00    +0.000 OA
BRANCH  22  23
ATOM     23  C   UNL     1      -3.258  -3.651   0.486  0.00  0.00    +0.000 C 
ATOM     24  O   UNL     1      -2.686  -3.647   1.821  0.00  0.00    +0.000 OA
ATOM     25  C   UNL     1      -4.710  -4.167   0.565  0.00  0.00    +0.000 C 
ATOM     26  C   UNL     1      -3.351  -2.791   2.790  0.00  0.00    +0.000 C 
ATOM     27  C   UNL     1      -5.531  -3.362   1.604  0.00  0.00    +0.000 C 
ATOM     28  C   UNL     1      -4.810  -3.278   2.974  0.00  0.00    +0.000 C 
BRANCH  28  29
ATOM     29  O   UNL     1      -5.521  -2.379   3.837  0.00  0.00    +0.000 OA
ATOM     30  H   UNL     1      -5.792  -1.587   3.335  0.00  0.00    +0.000 HD
ENDBRANCH  28  29
BRANCH  25  31
ATOM     31  O   UNL     1      -4.679  -5.551   0.925  0.00  0.00    +0.000 OA
ATOM     32  H   UNL     1      -4.077  -5.636   1.685  0.00  0.00    +0.000 HD
ENDBRANCH  25  31
BRANCH  27  33
ATOM     33  O   UNL     1      -6.799  -4.001   1.774  0.00  0.00    +0.000 OA
ATOM     34  H   UNL     1      -6.615  -4.959   1.838  0.00  0.00    +0.000 HD
ENDBRANCH  27  33
BRANCH  26  35
ATOM     35  C   UNL     1      -2.536  -2.840   4.100  0.00  0.00    +0.000 C 
BRANCH  35  36
ATOM     36  O   UNL     1      -2.303  -4.195   4.496  0.00  0.00    +0.000 OA
ATOM     37  H   UNL     1      -1.845  -4.640   3.760  0.00  0.00    +0.000 HD
ENDBRANCH  35  36
ENDBRANCH  26  35
ENDBRANCH  22  23
ENDBRANCH  11  22
TORSDOF 10
