REMARK  Name = opt57.pdb
REMARK  0 active torsions:
REMARK  status: ('A' for Active; 'I' for Inactive)
REMARK                            x       y       z     vdW  Elec       q    Type
REMARK                         _______ _______ _______ _____ _____    ______ ____
ROOT
ATOM      1  O   UNL     1      -4.059  -0.876   0.250  0.00  0.00    +0.000 OA
ATOM      2  C   UNL     1      -2.993  -0.304   0.163  0.00  0.00    +0.000 A 
ATOM      3  O   UNL     1      -1.832  -0.992   0.031  0.00  0.00    +0.000 OA
ATOM      4  C   UNL     1      -2.848   1.159   0.185  0.00  0.00    +0.000 A 
ATOM      5  C   UNL     1      -0.573  -0.428  -0.052  0.00  0.00    +0.000 A 
ATOM      6  C   UNL     1      -1.572   1.802   0.052  0.00  0.00    +0.000 A 
ATOM      7  C   UNL     1      -0.441   1.008  -0.080  0.00  0.00    +0.000 A 
ATOM      8  C   UNL     1       0.555  -1.318  -0.155  0.00  0.00    +0.000 A 
ATOM      9  C   UNL     1       0.824   1.567  -0.249  0.00  0.00    +0.000 A 
ATOM     10  C   UNL     1       1.833  -0.735  -0.483  0.00  0.00    +0.000 A 
ATOM     11  C   UNL     1       1.950   0.686  -0.412  0.00  0.00    +0.000 A 
ATOM     12  O   UNL     1       3.023  -1.293  -0.094  0.00  0.00    +0.000 OA
ATOM     13  C   UNL     1       3.271   0.980   0.037  0.00  0.00    +0.000 A 
ATOM     14  C   UNL     1       3.881  -0.246   0.170  0.00  0.00    +0.000 A 
ENDROOT
TORSDOF 0
