REMARK  Name = opt56.pdb
REMARK  4 active torsions:
REMARK  status: ('A' for Active; 'I' for Inactive)
REMARK    1  A    between atoms: O_1  and  C_2
REMARK    2  A    between atoms: C_2  and  C_3
REMARK    3  A    between atoms: C_2  and  C_4
REMARK    4  A    between atoms: C_18  and  C_21
REMARK                            x       y       z     vdW  Elec       q    Type
REMARK                         _______ _______ _______ _____ _____    ______ ____
ROOT
ATOM      1  C   UNL A   1       0.839  -0.040  -0.737  0.00  0.00    +0.000 C 
ENDROOT
BRANCH   1   2
ATOM      2  C   UNL A   1       1.120   1.470  -0.655  0.00  0.00    +0.000 A 
ATOM      3  C   UNL A   1       2.239   2.088  -0.045  0.00  0.00    +0.000 A 
ATOM      4  C   UNL A   1       0.180   2.298  -1.272  0.00  0.00    +0.000 A 
ATOM      5  C   UNL A   1       2.388   3.488  -0.171  0.00  0.00    +0.000 A 
ATOM      6  C   UNL A   1       3.213   1.379   0.678  0.00  0.00    +0.000 A 
ATOM      7  C   UNL A   1       0.374   3.673  -1.302  0.00  0.00    +0.000 A 
ATOM      8  N   UNL A   1       1.465   4.262  -0.783  0.00  0.00    +0.000 NA
ATOM      9  C   UNL A   1       3.522   4.115   0.349  0.00  0.00    +0.000 A 
ATOM     10  C   UNL A   1       4.343   2.019   1.182  0.00  0.00    +0.000 A 
ATOM     11  C   UNL A   1       4.507   3.386   1.005  0.00  0.00    +0.000 A 
ENDBRANCH   1   2
BRANCH   1  12
ATOM     12  C   UNL A   1      -0.075  -0.527   0.431  0.00  0.00    +0.000 C 
ATOM     13  N   UNL A   1      -1.500  -0.095   0.221  0.00  0.00    +0.000 NA
ATOM     14  C   UNL A   1      -0.037  -2.068   0.708  0.00  0.00    +0.000 C 
ATOM     15  C   UNL A   1      -2.170  -0.849  -0.887  0.00  0.00    +0.000 C 
ATOM     16  C   UNL A   1      -2.274  -0.326   1.473  0.00  0.00    +0.000 C 
ATOM     17  C   UNL A   1      -1.479  -2.635   0.768  0.00  0.00    +0.000 C 
ATOM     18  C   UNL A   1      -2.111  -2.385  -0.628  0.00  0.00    +0.000 C 
ATOM     19  C   UNL A   1      -2.269  -1.836   1.840  0.00  0.00    +0.000 C 
BRANCH  18  20
ATOM     20  C   UNL A   1      -3.471  -3.045  -0.759  0.00  0.00    +0.000 C 
ATOM     21  C   UNL A   1      -3.652  -4.246  -1.291  0.00  0.00    +0.000 C 
ENDBRANCH  18  20
ENDBRANCH   1  12
BRANCH   1  22
ATOM     22  O   UNL A   1       2.030  -0.821  -0.871  0.00  0.00    +0.000 OA
ATOM     23  H   UNL A   1       2.552  -0.451  -1.606  0.00  0.00    +0.000 HD
ENDBRANCH   1  22
TORSDOF 4
