REMARK  Name = opt55.pdb
REMARK  12 active torsions:
REMARK  status: ('A' for Active; 'I' for Inactive)
REMARK    1  A    between atoms: C_3  and  O_5
REMARK    2  A    between atoms: C_6  and  C_10
REMARK    3  A    between atoms: C_8  and  O_12
REMARK    4  A    between atoms: C_16  and  O_19
REMARK    5  A    between atoms: C_17  and  O_20
REMARK    6  A    between atoms: C_21  and  O_22
REMARK    7  A    between atoms: O_22  and  C_23
REMARK    8  A    between atoms: C_25  and  O_27
REMARK    9  A    between atoms: C_26  and  C_30
REMARK   10  A    between atoms: C_28  and  O_31
REMARK   11  A    between atoms: C_29  and  O_32
REMARK   12  A    between atoms: C_30  and  O_33
REMARK                            x       y       z     vdW  Elec       q    Type
REMARK                         _______ _______ _______ _____ _____    ______ ____
ROOT
ATOM      1  C   UNL     1       2.809   2.481  -0.910  0.00  0.00    +0.000 A 
ATOM      2  C   UNL     1       2.782   3.215   0.290  0.00  0.00    +0.000 A 
ATOM      3  C   UNL     1       3.724   2.861  -1.910  0.00  0.00    +0.000 A 
ATOM      4  C   UNL     1       3.621   4.318   0.467  0.00  0.00    +0.000 A 
ATOM      5  C   UNL     1       4.550   3.973  -1.731  0.00  0.00    +0.000 A 
ATOM      6  C   UNL     1       4.485   4.723  -0.553  0.00  0.00    +0.000 A 
ENDROOT
BRANCH   1  11
ATOM      7  O   UNL     1      -1.449   0.675  -1.660  0.00  0.00    +0.000 OA
ATOM      8  C   UNL     1      -0.265   0.498  -1.433  0.00  0.00    +0.000 A 
ATOM      9  C   UNL     1       0.723   1.607  -1.370  0.00  0.00    +0.000 A 
ATOM     10  C   UNL     1       0.334  -0.829  -1.202  0.00  0.00    +0.000 A 
ATOM     11  C   UNL     1       1.813   1.373  -1.158  0.00  0.00    +0.000 A 
ATOM     12  C   UNL     1       1.697  -0.835  -0.989  0.00  0.00    +0.000 A 
ATOM     13  C   UNL     1      -0.370  -2.093  -1.185  0.00  0.00    +0.000 A 
ATOM     14  O   UNL     1       2.358   0.394  -1.014  0.00  0.00    +0.000 OA
ATOM     15  C   UNL     1       2.380  -2.095  -0.755  0.00  0.00    +0.000 A 
ATOM     16  C   UNL     1       0.295  -3.288  -0.953  0.00  0.00    +0.000 A 
ATOM     17  C   UNL     1       1.664  -3.300  -0.738  0.00  0.00    +0.000 A 
BRANCH  13  18
ATOM     18  O   UNL     1      -1.711  -2.131  -1.393  0.00  0.00    +0.000 OA
ATOM     19  H   UNL     1      -1.990  -1.210  -1.538  0.00  0.00    +0.000 HD
ENDBRANCH  13  18
BRANCH  17  20
ATOM     20  O   UNL     1       2.245  -4.518  -0.514  0.00  0.00    +0.000 OA
ATOM     21  H   UNL     1       3.209  -4.482  -0.449  0.00  0.00    +0.000 HD
ENDBRANCH  17  20
BRANCH   9  22
ATOM     22  O   UNL     1       0.123   2.801  -1.631  0.00  0.00    +0.000 OA
ATOM     23  H   UNL     1      -0.829   2.615  -1.822  0.00  0.00    +0.000 HD
ENDBRANCH   9  22
ENDBRANCH   1  11
BRANCH   4  24
ATOM     24  O   UNL     1       3.578   5.027   1.635  0.00  0.00    +0.000 OA
ATOM     25  H   UNL     1       3.265   4.466   2.362  0.00  0.00    +0.000 HD
ENDBRANCH   4  24
BRANCH   6  26
ATOM     26  O   UNL     1       5.233   5.878  -0.358  0.00  0.00    +0.000 OA
BRANCH  26  27
ATOM     27  C   UNL     1       5.899   6.624  -1.406  0.00  0.00    +0.000 C 
ATOM     28  O   UNL     1       4.985   6.940  -2.492  0.00  0.00    +0.000 OA
ATOM     29  C   UNL     1       6.455   7.943  -0.808  0.00  0.00    +0.000 C 
ATOM     30  C   UNL     1       3.835   7.746  -2.122  0.00  0.00    +0.000 C 
ATOM     31  C   UNL     1       5.307   8.913  -0.426  0.00  0.00    +0.000 C 
ATOM     32  C   UNL     1       4.334   9.122  -1.614  0.00  0.00    +0.000 C 
BRANCH  29  33
ATOM     33  O   UNL     1       7.328   8.560  -1.762  0.00  0.00    +0.000 OA
ATOM     34  H   UNL     1       6.845   8.651  -2.603  0.00  0.00    +0.000 HD
ENDBRANCH  29  33
BRANCH  32  35
ATOM     35  O   UNL     1       3.221   9.927  -1.204  0.00  0.00    +0.000 OA
ATOM     36  H   UNL     1       2.742   9.466  -0.494  0.00  0.00    +0.000 HD
ENDBRANCH  32  35
BRANCH  31  37
ATOM     37  O   UNL     1       5.857  10.171  -0.009  0.00  0.00    +0.000 OA
ATOM     38  H   UNL     1       6.559  10.423  -0.639  0.00  0.00    +0.000 HD
ENDBRANCH  31  37
BRANCH  30  39
ATOM     39  C   UNL     1       2.901   7.851  -3.348  0.00  0.00    +0.000 C 
BRANCH  39  40
ATOM     40  O   UNL     1       3.586   8.421  -4.466  0.00  0.00    +0.000 OA
ATOM     41  H   UNL     1       4.326   7.832  -4.695  0.00  0.00    +0.000 HD
ENDBRANCH  39  40
ENDBRANCH  30  39
ENDBRANCH  26  27
ENDBRANCH   6  26
TORSDOF 12
