REMARK  Name = opt54.pdb
REMARK  4 active torsions:
REMARK  status: ('A' for Active; 'I' for Inactive)
REMARK    1  A    between atoms: O_1  and  C_2
REMARK    2  A    between atoms: C_3  and  C_7
REMARK    3  A    between atoms: C_5  and  C_9
REMARK    4  A    between atoms: C_5  and  C_10
REMARK                            x       y       z     vdW  Elec       q    Type
REMARK                         _______ _______ _______ _____ _____    ______ ____
ROOT
ATOM      1  C   UNL A   1       0.538  -4.074   1.209  0.00  0.00    +0.000 C 
ATOM      2  C   UNL A   1       0.299  -3.714  -0.289  0.00  0.00    +0.000 C 
ATOM      3  C   UNL A   1      -0.518  -3.200   1.934  0.00  0.00    +0.000 C 
ATOM      4  C   UNL A   1       0.044  -2.180  -0.219  0.00  0.00    +0.000 C 
ATOM      5  C   UNL A   1      -1.093  -4.280  -0.714  0.00  0.00    +0.000 C 
ATOM      6  C   UNL A   1       1.448  -4.172  -1.213  0.00  0.00    +0.000 C 
ATOM      7  C   UNL A   1      -1.137  -2.375   0.769  0.00  0.00    +0.000 C 
ATOM      8  C   UNL A   1      -0.348  -1.507  -1.573  0.00  0.00    +0.000 C 
ATOM      9  C   UNL A   1       1.215  -1.321   0.358  0.00  0.00    +0.000 C 
ATOM     10  C   UNL A   1      -2.085  -3.340   0.012  0.00  0.00    +0.000 C 
ENDROOT
BRANCH   1  11
ATOM     11  O   UNL A   1       0.383  -5.469   1.490  0.00  0.00    +0.000 OA
ATOM     12  H   UNL A   1       0.783  -5.652   2.360  0.00  0.00    +0.000 HD
ENDBRANCH   1  11
TORSDOF 1
