REMARK  Name = opt62.pdb
REMARK  10 active torsions:
REMARK  status: ('A' for Active; 'I' for Inactive)
REMARK    1  A    between atoms: C_6  and  O_10
REMARK    2  A    between atoms: C_7  and  C_12
REMARK    3  A    between atoms: C_13  and  O_16
REMARK    4  A    between atoms: O_16  and  C_19
REMARK    5  A    between atoms: C_20  and  O_23
REMARK    6  A    between atoms: C_22  and  O_25
REMARK    7  A    between atoms: C_24  and  C_28
REMARK    8  A    between atoms: C_26  and  O_29
REMARK    9  A    between atoms: C_27  and  O_30
REMARK   10  A    between atoms: C_28  and  O_31
REMARK                            x       y       z     vdW  Elec       q    Type
REMARK                         _______ _______ _______ _____ _____    ______ ____
ROOT
ATOM      1  O   UNL     1      -1.538   1.934   0.342  0.00  0.00    +0.000 OA
ATOM      2  C   UNL     1      -1.508   0.730   0.165  0.00  0.00    +0.000 A 
ATOM      3  C   UNL     1      -0.273  -0.074   0.117  0.00  0.00    +0.000 A 
ATOM      4  C   UNL     1      -2.724  -0.087  -0.052  0.00  0.00    +0.000 A 
ATOM      5  C   UNL     1      -0.458  -1.422  -0.117  0.00  0.00    +0.000 A 
ATOM      6  C   UNL     1       1.079   0.418   0.269  0.00  0.00    +0.000 A 
ATOM      7  C   UNL     1      -2.655  -1.200  -0.215  0.00  0.00    +0.000 A 
ATOM      8  O   UNL     1      -1.763  -1.884  -0.275  0.00  0.00    +0.000 OA
ATOM      9  C   UNL     1       0.689  -2.290  -0.272  0.00  0.00    +0.000 A 
ATOM     10  C   UNL     1       2.168  -0.431   0.135  0.00  0.00    +0.000 A 
ATOM     11  C   UNL     1       1.986  -1.776  -0.148  0.00  0.00    +0.000 A 
ENDROOT
BRANCH   7  12
ATOM     12  C   UNL     1      -3.975  -1.906  -0.089  0.00  0.00    +0.000 A 
ATOM     13  C   UNL     1      -4.780  -2.115  -1.223  0.00  0.00    +0.000 A 
ATOM     14  C   UNL     1      -4.457  -2.312   1.169  0.00  0.00    +0.000 A 
ATOM     15  C   UNL     1      -6.029  -2.724  -1.101  0.00  0.00    +0.000 A 
ATOM     16  C   UNL     1      -5.709  -2.917   1.280  0.00  0.00    +0.000 A 
ATOM     17  C   UNL     1      -6.495  -3.129   0.149  0.00  0.00    +0.000 A 
BRANCH  17  18
ATOM     18  O   UNL     1      -7.718  -3.725   0.280  0.00  0.00    +0.000 OA
ATOM     19  H   UNL     1      -8.142  -3.869  -0.588  0.00  0.00    +0.000 HD
ENDBRANCH  17  18
ENDBRANCH   7  12
BRANCH   6  20
ATOM     20  O   UNL     1       1.322   1.732   0.518  0.00  0.00    +0.000 OA
ATOM     21  H   UNL     1       0.456   2.179   0.535  0.00  0.00    +0.000 HD
ENDBRANCH   6  20
BRANCH  11  22
ATOM     22  O   UNL     1       3.139  -2.518  -0.329  0.00  0.00    +0.000 OA
BRANCH  22  23
ATOM     23  C   UNL     1       3.215  -3.759  -1.061  0.00  0.00    +0.000 C 
ATOM     24  O   UNL     1       2.562  -3.644  -2.352  0.00  0.00    +0.000 OA
ATOM     25  C   UNL     1       4.712  -4.103  -1.255  0.00  0.00    +0.000 C 
ATOM     26  C   UNL     1       3.083  -2.632  -3.250  0.00  0.00    +0.000 C 
ATOM     27  C   UNL     1       5.388  -3.139  -2.274  0.00  0.00    +0.000 C 
ATOM     28  C   UNL     1       4.561  -2.974  -3.570  0.00  0.00    +0.000 C 
BRANCH  28  29
ATOM     29  O   UNL     1       5.167  -1.938  -4.359  0.00  0.00    +0.000 OA
ATOM     30  H   UNL     1       4.894  -1.063  -4.012  0.00  0.00    +0.000 HD
ENDBRANCH  28  29
BRANCH  25  31
ATOM     31  O   UNL     1       4.822  -5.463  -1.677  0.00  0.00    +0.000 OA
ATOM     32  H   UNL     1       4.921  -5.458  -2.640  0.00  0.00    +0.000 HD
ENDBRANCH  25  31
BRANCH  27  33
ATOM     33  O   UNL     1       6.692  -3.609  -2.646  0.00  0.00    +0.000 OA
ATOM     34  H   UNL     1       6.941  -3.177  -3.493  0.00  0.00    +0.000 HD
ENDBRANCH  27  33
BRANCH  26  35
ATOM     35  C   UNL     1       2.172  -2.651  -4.496  0.00  0.00    +0.000 C 
BRANCH  35  36
ATOM     36  O   UNL     1       2.557  -1.639  -5.426  0.00  0.00    +0.000 OA
ATOM     37  H   UNL     1       3.503  -1.787  -5.637  0.00  0.00    +0.000 HD
ENDBRANCH  35  36
ENDBRANCH  26  35
ENDBRANCH  22  23
ENDBRANCH  11  22
TORSDOF 10
