REMARK  Name = opt60.pdb
REMARK  4 active torsions:
REMARK  status: ('A' for Active; 'I' for Inactive)
REMARK    1  A    between atoms: C_7  and  O_9
REMARK    2  A    between atoms: O_9  and  C_12
REMARK    3  A    between atoms: C_11  and  O_15
REMARK    4  A    between atoms: O_15  and  C_18
REMARK                            x       y       z     vdW  Elec       q    Type
REMARK                         _______ _______ _______ _____ _____    ______ ____
ROOT
ATOM      1  O   UNL     1      -4.240  -0.943  -0.007  0.00  0.00    +0.000 OA
ATOM      2  C   UNL     1      -3.191  -0.335   0.005  0.00  0.00    +0.000 A 
ATOM      3  O   UNL     1      -2.003  -0.977  -0.042  0.00  0.00    +0.000 OA
ATOM      4  C   UNL     1      -3.090   1.125   0.064  0.00  0.00    +0.000 A 
ATOM      5  C   UNL     1      -0.747  -0.391  -0.010  0.00  0.00    +0.000 A 
ATOM      6  C   UNL     1      -1.823   1.794   0.060  0.00  0.00    +0.000 A 
ATOM      7  C   UNL     1       0.375  -1.311  -0.013  0.00  0.00    +0.000 A 
ATOM      8  C   UNL     1      -0.640   1.058   0.015  0.00  0.00    +0.000 A 
ATOM      9  C   UNL     1       1.672  -0.665  -0.033  0.00  0.00    +0.000 A 
ATOM     10  C   UNL     1       0.657   1.602   0.000  0.00  0.00    +0.000 A 
ATOM     11  O   UNL     1       2.898  -1.301  -0.034  0.00  0.00    +0.000 OA
ATOM     12  C   UNL     1       1.771   0.691  -0.025  0.00  0.00    +0.000 A 
ATOM     13  C   UNL     1       3.762  -0.211  -0.025  0.00  0.00    +0.000 A 
ATOM     14  C   UNL     1       3.147   1.021  -0.018  0.00  0.00    +0.000 A 
ENDROOT
BRANCH   7  15
ATOM     15  O   UNL     1       0.542  -2.684  -0.005  0.00  0.00    +0.000 OA
ATOM     16  C   UNL     1      -0.598  -3.570   0.004  0.00  0.00    +0.000 C 
ENDBRANCH   7  15
BRANCH  10  17
ATOM     17  O   UNL     1       1.072   2.932   0.006  0.00  0.00    +0.000 OA
ATOM     18  C   UNL     1       0.259   4.124  -0.043  0.00  0.00    +0.000 C 
ENDBRANCH  10  17
TORSDOF 2
