REMARK  Name = opt68.pdb
REMARK  2 active torsions:
REMARK  status: ('A' for Active; 'I' for Inactive)
REMARK    1  A    between atoms: C_9  and  O_11
REMARK    2  A    between atoms: O_11  and  C_14
REMARK                            x       y       z     vdW  Elec       q    Type
REMARK                         _______ _______ _______ _____ _____    ______ ____
ROOT
ATOM      1  O   UNL     1      -4.079  -1.189   0.056  0.00  0.00    +0.000 OA
ATOM      2  C   UNL     1      -3.056  -0.538   0.057  0.00  0.00    +0.000 A 
ATOM      3  O   UNL     1      -1.842  -1.128  -0.036  0.00  0.00    +0.000 OA
ATOM      4  C   UNL     1      -3.018   0.926   0.139  0.00  0.00    +0.000 A 
ATOM      5  C   UNL     1      -0.622  -0.476  -0.010  0.00  0.00    +0.000 A 
ATOM      6  C   UNL     1      -1.784   1.656   0.090  0.00  0.00    +0.000 A 
ATOM      7  C   UNL     1      -0.573   0.973  -0.012  0.00  0.00    +0.000 A 
ATOM      8  C   UNL     1       0.544  -1.321   0.047  0.00  0.00    +0.000 A 
ATOM      9  C   UNL     1       0.698   1.570  -0.126  0.00  0.00    +0.000 A 
ATOM     10  C   UNL     1       1.780  -0.702  -0.352  0.00  0.00    +0.000 A 
ATOM     11  C   UNL     1       1.852   0.718  -0.293  0.00  0.00    +0.000 A 
ATOM     12  O   UNL     1       3.015  -1.223  -0.069  0.00  0.00    +0.000 OA
ATOM     13  C   UNL     1       3.206   1.063  -0.005  0.00  0.00    +0.000 A 
ATOM     14  C   UNL     1       3.863  -0.144   0.079  0.00  0.00    +0.000 A 
ENDROOT
BRANCH   9  15
ATOM     15  O   UNL     1       1.061   2.915  -0.150  0.00  0.00    +0.000 OA
ATOM     16  C   UNL     1       0.202   4.071  -0.062  0.00  0.00    +0.000 C 
ENDBRANCH   9  15
TORSDOF 1
