REMARK  Name = opt66.pdb
REMARK  7 active torsions:
REMARK  status: ('A' for Active; 'I' for Inactive)
REMARK    1  A    between atoms: C_2  and  O_3
REMARK    2  A    between atoms: C_2  and  C_4
REMARK    3  A    between atoms: O_3  and  C_5
REMARK    4  A    between atoms: C_4  and  C_6
REMARK    5  A    between atoms: C_4  and  C_7
REMARK    6  A    between atoms: C_7  and  O_12
REMARK    7  A    between atoms: N_17  and  C_21
REMARK                            x       y       z     vdW  Elec       q    Type
REMARK                         _______ _______ _______ _____ _____    ______ ____
ROOT
ATOM      1  O   UNL     1       3.013   1.212  -1.558  0.00  0.00    +0.000 OA
ATOM      2  C   UNL     1       3.982   1.922  -1.358  0.00  0.00    +0.000 C 
ENDROOT
BRANCH   2   3
ATOM      3  C   UNL     1       4.416   3.024  -2.314  0.00  0.00    +0.000 C 
BRANCH   3   4
ATOM      4  C   UNL     1       5.308   2.457  -3.415  0.00  0.00    +0.000 A 
ATOM      5  C   UNL     1       4.863   1.407  -4.227  0.00  0.00    +0.000 A 
ATOM      6  C   UNL     1       6.573   3.005  -3.644  0.00  0.00    +0.000 A 
ATOM      7  C   UNL     1       5.675   0.909  -5.244  0.00  0.00    +0.000 A 
ATOM      8  C   UNL     1       7.383   2.507  -4.664  0.00  0.00    +0.000 A 
ATOM      9  C   UNL     1       6.935   1.459  -5.463  0.00  0.00    +0.000 A 
ENDBRANCH   3   4
BRANCH   3  10
ATOM     10  C   UNL     1       3.206   3.769  -2.928  0.00  0.00    +0.000 C 
BRANCH  10  11
ATOM     11  O   UNL     1       2.461   4.470  -1.927  0.00  0.00    +0.000 OA
ATOM     12  H   UNL     1       2.022   3.813  -1.355  0.00  0.00    +0.000 HD
ENDBRANCH  10  11
ENDBRANCH   3  10
ENDBRANCH   2   3
BRANCH   2  13
ATOM     13  O   UNL     1       4.758   1.861  -0.249  0.00  0.00    +0.000 OA
BRANCH  13  14
ATOM     14  C   UNL     1       4.457   0.871   0.771  0.00  0.00    +0.000 C 
ATOM     15  C   UNL     1       4.986  -0.529   0.354  0.00  0.00    +0.000 C 
ATOM     16  C   UNL     1       5.067   1.320   2.123  0.00  0.00    +0.000 C 
ATOM     17  C   UNL     1       4.972  -1.519   1.558  0.00  0.00    +0.000 C 
ATOM     18  C   UNL     1       5.035   0.162   3.166  0.00  0.00    +0.000 C 
ATOM     19  N   UNL     1       5.792  -1.006   2.674  0.00  0.00    +0.000 NA
ATOM     20  C   UNL     1       3.577  -1.567   2.223  0.00  0.00    +0.000 C 
ATOM     21  C   UNL     1       3.617  -0.444   3.291  0.00  0.00    +0.000 C 
ATOM     22  C   UNL     1       7.246  -0.843   2.449  0.00  0.00    +0.000 C 
ENDBRANCH  13  14
ENDBRANCH   2  13
TORSDOF 6
