REMARK  Name = opt65.pdb
REMARK  11 active torsions:
REMARK  status: ('A' for Active; 'I' for Inactive)
REMARK    1  A    between atoms: C_6  and  O_10
REMARK    2  A    between atoms: C_7  and  C_12
REMARK    3  A    between atoms: C_13  and  O_16
REMARK    4  A    between atoms: O_16  and  C_19
REMARK    5  A    between atoms: C_17  and  O_20
REMARK    6  A    between atoms: C_21  and  O_24
REMARK    7  A    between atoms: C_23  and  O_26
REMARK    8  A    between atoms: C_25  and  C_29
REMARK    9  A    between atoms: C_27  and  O_30
REMARK   10  A    between atoms: C_28  and  O_31
REMARK   11  A    between atoms: C_29  and  O_32
REMARK                            x       y       z     vdW  Elec       q    Type
REMARK                         _______ _______ _______ _____ _____    ______ ____
ROOT
ATOM      1  O   UNL     1      -1.511   1.961   0.393  0.00  0.00    +0.000 OA
ATOM      2  C   UNL     1      -1.512   0.757   0.222  0.00  0.00    +0.000 A 
ATOM      3  C   UNL     1      -0.301  -0.084   0.211  0.00  0.00    +0.000 A 
ATOM      4  C   UNL     1      -2.746  -0.024  -0.025  0.00  0.00    +0.000 A 
ATOM      5  C   UNL     1      -0.518  -1.425  -0.032  0.00  0.00    +0.000 A 
ATOM      6  C   UNL     1       1.061   0.367   0.405  0.00  0.00    +0.000 A 
ATOM      7  C   UNL     1      -2.710  -1.140  -0.183  0.00  0.00    +0.000 A 
ATOM      8  O   UNL     1      -1.833  -1.844  -0.227  0.00  0.00    +0.000 OA
ATOM      9  C   UNL     1       0.610  -2.319  -0.188  0.00  0.00    +0.000 A 
ATOM     10  C   UNL     1       2.131  -0.510   0.282  0.00  0.00    +0.000 A 
ATOM     11  C   UNL     1       1.918  -1.843  -0.035  0.00  0.00    +0.000 A 
ENDROOT
BRANCH   7  12
ATOM     12  C   UNL     1      -4.035  -1.841  -0.071  0.00  0.00    +0.000 A 
ATOM     13  C   UNL     1      -4.856  -1.994  -1.205  0.00  0.00    +0.000 A 
ATOM     14  C   UNL     1      -4.495  -2.314   1.172  0.00  0.00    +0.000 A 
ATOM     15  C   UNL     1      -6.096  -2.626  -1.094  0.00  0.00    +0.000 A 
ATOM     16  C   UNL     1      -5.737  -2.940   1.271  0.00  0.00    +0.000 A 
ATOM     17  C   UNL     1      -6.531  -3.103   0.138  0.00  0.00    +0.000 A 
BRANCH  17  18
ATOM     18  O   UNL     1      -7.739  -3.729   0.209  0.00  0.00    +0.000 OA
ATOM     19  H   UNL     1      -8.088  -3.772  -0.711  0.00  0.00    +0.000 HD
ENDBRANCH  17  18
BRANCH  15  20
ATOM     20  O   UNL     1      -6.910  -2.786  -2.180  0.00  0.00    +0.000 OA
ATOM     21  H   UNL     1      -6.504  -2.399  -2.971  0.00  0.00    +0.000 HD
ENDBRANCH  15  20
ENDBRANCH   7  12
BRANCH   6  22
ATOM     22  O   UNL     1       1.329   1.670   0.684  0.00  0.00    +0.000 OA
ATOM     23  H   UNL     1       0.474   2.141   0.689  0.00  0.00    +0.000 HD
ENDBRANCH   6  22
BRANCH  11  24
ATOM     24  O   UNL     1       3.055  -2.611  -0.225  0.00  0.00    +0.000 OA
BRANCH  24  25
ATOM     25  C   UNL     1       3.093  -3.860  -0.950  0.00  0.00    +0.000 C 
ATOM     26  O   UNL     1       2.441  -3.732  -2.238  0.00  0.00    +0.000 OA
ATOM     27  C   UNL     1       4.574  -4.263  -1.153  0.00  0.00    +0.000 C 
ATOM     28  C   UNL     1       3.004  -2.745  -3.142  0.00  0.00    +0.000 C 
ATOM     29  C   UNL     1       5.292  -3.329  -2.171  0.00  0.00    +0.000 C 
ATOM     30  C   UNL     1       4.470  -3.123  -3.466  0.00  0.00    +0.000 C 
BRANCH  30  31
ATOM     31  O   UNL     1       5.082  -2.093  -4.262  0.00  0.00    +0.000 OA
ATOM     32  H   UNL     1       4.925  -1.212  -3.865  0.00  0.00    +0.000 HD
ENDBRANCH  30  31
BRANCH  27  33
ATOM     33  O   UNL     1       4.619  -5.625  -1.585  0.00  0.00    +0.000 OA
ATOM     34  H   UNL     1       4.812  -5.622  -2.536  0.00  0.00    +0.000 HD
ENDBRANCH  27  33
BRANCH  29  35
ATOM     35  O   UNL     1       6.572  -3.876  -2.526  0.00  0.00    +0.000 OA
ATOM     36  H   UNL     1       6.798  -3.589  -3.434  0.00  0.00    +0.000 HD
ENDBRANCH  29  35
BRANCH  28  37
ATOM     37  C   UNL     1       2.110  -2.722  -4.399  0.00  0.00    +0.000 C 
BRANCH  37  38
ATOM     38  O   UNL     1       1.980  -4.043  -4.931  0.00  0.00    +0.000 OA
ATOM     39  H   UNL     1       1.770  -4.637  -4.184  0.00  0.00    +0.000 HD
ENDBRANCH  37  38
ENDBRANCH  28  37
ENDBRANCH  24  25
ENDBRANCH  11  24
TORSDOF 11
