REMARK  Name = opt67.pdb
REMARK  6 active torsions:
REMARK  status: ('A' for Active; 'I' for Inactive)
REMARK    1  A    between atoms: C_2  and  O_3
REMARK    2  A    between atoms: O_3  and  C_5
REMARK    3  A    between atoms: N_4  and  C_6
REMARK    4  A    between atoms: C_12  and  C_16
REMARK    5  A    between atoms: N_13  and  C_17
REMARK    6  A    between atoms: N_18  and  C_20
REMARK                            x       y       z     vdW  Elec       q    Type
REMARK                         _______ _______ _______ _____ _____    ______ ____
ROOT
ATOM      1  C   UNL     1       0.597   7.789  -0.035  0.00  0.00    +0.000 A 
ATOM      2  C   UNL     1       0.636   6.576  -0.722  0.00  0.00    +0.000 A 
ATOM      3  C   UNL     1      -0.503   8.139   0.750  0.00  0.00    +0.000 A 
ATOM      4  C   UNL     1      -0.478   5.662  -0.641  0.00  0.00    +0.000 A 
ATOM      5  C   UNL     1      -1.677   7.318   0.865  0.00  0.00    +0.000 A 
ATOM      6  C   UNL     1      -1.567   6.017   0.268  0.00  0.00    +0.000 A 
ATOM      7  C   UNL     1      -0.244   4.184  -0.568  0.00  0.00    +0.000 C 
ATOM      8  N   UNL     1      -2.222   4.816   0.468  0.00  0.00    +0.000 N 
ATOM      9  C   UNL     1      -1.723   3.877  -0.512  0.00  0.00    +0.000 C 
ATOM     10  C   UNL     1       0.070   3.287  -1.769  0.00  0.00    +0.000 C 
ATOM     11  C   UNL     1       0.638   3.858   0.675  0.00  0.00    +0.000 C 
ATOM     12  C   UNL     1      -3.668   4.844   0.696  0.00  0.00    +0.000 C 
ATOM     13  N   UNL     1      -1.862   2.417  -0.495  0.00  0.00    +0.000 NA
ATOM     14  C   UNL     1      -0.740   1.996  -1.395  0.00  0.00    +0.000 C 
ATOM     15  C   UNL     1      -1.910   1.754   0.832  0.00  0.00    +0.000 C 
ENDROOT
BRANCH   1  16
ATOM     16  O   UNL     1       1.690   8.631  -0.058  0.00  0.00    +0.000 OA
BRANCH  16  18
ATOM     17  O   UNL     1       0.628  10.522  -0.747  0.00  0.00    +0.000 OA
ATOM     18  C   UNL     1       1.579   9.961  -0.237  0.00  0.00    +0.000 C 
ATOM     19  N   UNL     1       2.435  10.565   0.609  0.00  0.00    +0.000 N 
ATOM     20  C   UNL     1       2.265  11.936   1.102  0.00  0.00    +0.000 C 
ATOM     21  H   UNL     1       3.092   9.980   1.102  0.00  0.00    +0.000 HD
ENDBRANCH  16  18
ENDBRANCH   1  16
TORSDOF 2
