REMARK  Name = opt64.pdb
REMARK  8 active torsions:
REMARK  status: ('A' for Active; 'I' for Inactive)
REMARK    1  A    between atoms: C_2  and  O_4
REMARK    2  A    between atoms: C_3  and  C_7
REMARK    3  A    between atoms: O_4  and  C_8
REMARK    4  A    between atoms: C_5  and  O_9
REMARK    5  A    between atoms: C_6  and  O_11
REMARK    6  A    between atoms: C_7  and  O_12
REMARK    7  A    between atoms: C_10  and  O_15
REMARK    8  A    between atoms: C_18  and  O_19
REMARK                            x       y       z     vdW  Elec       q    Type
REMARK                         _______ _______ _______ _____ _____    ______ ____
ROOT
ATOM      1  O   UNL     1      -1.125  -1.344   0.382  0.00  0.00    +0.000 OA
ATOM      2  C   UNL     1      -1.662  -0.441  -0.608  0.00  0.00    +0.000 C 
ATOM      3  C   UNL     1       0.230  -1.757   0.102  0.00  0.00    +0.000 C 
ATOM      4  C   UNL     1      -0.859   0.881  -0.534  0.00  0.00    +0.000 C 
ATOM      5  C   UNL     1       1.123  -0.516   0.294  0.00  0.00    +0.000 C 
ATOM      6  C   UNL     1       0.655   0.581  -0.697  0.00  0.00    +0.000 C 
ENDROOT
BRANCH   4   7
ATOM      7  O   UNL     1      -1.090   1.544   0.719  0.00  0.00    +0.000 OA
ATOM      8  H   UNL     1      -1.359   0.871   1.372  0.00  0.00    +0.000 HD
ENDBRANCH   4   7
BRANCH   5   9
ATOM      9  O   UNL     1       2.490  -0.856   0.052  0.00  0.00    +0.000 OA
ATOM     10  H   UNL     1       2.739  -0.510  -0.821  0.00  0.00    +0.000 HD
ENDBRANCH   5   9
BRANCH   6  11
ATOM     11  O   UNL     1       1.385   1.782  -0.466  0.00  0.00    +0.000 OA
ATOM     12  H   UNL     1       0.894   2.236   0.245  0.00  0.00    +0.000 HD
ENDBRANCH   6  11
BRANCH   2  13
ATOM     13  O   UNL     1      -3.064  -0.192  -0.362  0.00  0.00    +0.000 OA
BRANCH  13  14
ATOM     14  C   UNL     1      -4.039  -1.165  -0.524  0.00  0.00    +0.000 A 
ATOM     15  C   UNL     1      -3.778  -2.535  -0.383  0.00  0.00    +0.000 A 
ATOM     16  C   UNL     1      -5.333  -0.745  -0.828  0.00  0.00    +0.000 A 
ATOM     17  C   UNL     1      -4.802  -3.463  -0.531  0.00  0.00    +0.000 A 
ATOM     18  C   UNL     1      -6.358  -1.677  -0.990  0.00  0.00    +0.000 A 
ATOM     19  C   UNL     1      -6.091  -3.037  -0.833  0.00  0.00    +0.000 A 
BRANCH  19  20
ATOM     20  O   UNL     1      -7.086  -3.954  -0.957  0.00  0.00    +0.000 OA
ATOM     21  H   UNL     1      -6.736  -4.828  -0.702  0.00  0.00    +0.000 HD
ENDBRANCH  19  20
ENDBRANCH  13  14
ENDBRANCH   2  13
BRANCH   3  22
ATOM     22  C   UNL     1       0.575  -2.927   1.035  0.00  0.00    +0.000 C 
BRANCH  22  23
ATOM     23  O   UNL     1      -0.217  -4.049   0.643  0.00  0.00    +0.000 OA
ATOM     24  H   UNL     1       0.114  -4.832   1.111  0.00  0.00    +0.000 HD
ENDBRANCH  22  23
ENDBRANCH   3  22
TORSDOF 8
