REMARK  Name = opt69.pdb
REMARK  4 active torsions:
REMARK  status: ('A' for Active; 'I' for Inactive)
REMARK    1  A    between atoms: C_3  and  C_5
REMARK    2  A    between atoms: C_16  and  O_18
REMARK    3  A    between atoms: C_17  and  O_19
REMARK    4  A    between atoms: O_19  and  C_20
REMARK                            x       y       z     vdW  Elec       q    Type
REMARK                         _______ _______ _______ _____ _____    ______ ____
ROOT
ATOM      1  O   UNL     1      -2.463   1.943   0.032  0.00  0.00    +0.000 OA
ATOM      2  C   UNL     1      -2.009   0.813   0.004  0.00  0.00    +0.000 A 
ATOM      3  C   UNL     1      -2.843  -0.401  -0.018  0.00  0.00    +0.000 A 
ATOM      4  C   UNL     1      -0.569   0.538  -0.004  0.00  0.00    +0.000 A 
ATOM      5  C   UNL     1      -2.275  -1.660  -0.048  0.00  0.00    +0.000 A 
ATOM      6  C   UNL     1      -0.103  -0.768  -0.034  0.00  0.00    +0.000 A 
ATOM      7  C   UNL     1       0.415   1.601   0.022  0.00  0.00    +0.000 A 
ATOM      8  O   UNL     1      -0.909  -1.895  -0.062  0.00  0.00    +0.000 OA
ATOM      9  C   UNL     1       1.322  -1.006  -0.038  0.00  0.00    +0.000 A 
ATOM     10  C   UNL     1       1.781   1.348   0.020  0.00  0.00    +0.000 A 
ATOM     11  C   UNL     1       2.240   0.039  -0.011  0.00  0.00    +0.000 A 
ENDROOT
BRANCH   3  12
ATOM     12  C   UNL     1      -3.955  -0.366  -0.010  0.00  0.00    +0.000 A 
ATOM     13  C   UNL     1      -4.656  -0.334   1.212  0.00  0.00    +0.000 A 
ATOM     14  C   UNL     1      -4.681  -0.310  -1.215  0.00  0.00    +0.000 A 
ATOM     15  C   UNL     1      -6.047  -0.250   1.222  0.00  0.00    +0.000 A 
ATOM     16  C   UNL     1      -6.072  -0.227  -1.189  0.00  0.00    +0.000 A 
ATOM     17  C   UNL     1      -6.760  -0.195   0.021  0.00  0.00    +0.000 A 
BRANCH  17  18
ATOM     18  O   UNL     1      -8.140  -0.106  -0.026  0.00  0.00    +0.000 OA
ATOM     19  C   UNL     1      -8.975   0.017   1.149  0.00  0.00    +0.000 C 
ENDBRANCH  17  18
ENDBRANCH   3  12
BRANCH  11  20
ATOM     20  O   UNL     1       3.582  -0.208  -0.014  0.00  0.00    +0.000 OA
ATOM     21  H   UNL     1       3.748  -1.168  -0.045  0.00  0.00    +0.000 HD
ENDBRANCH  11  20
TORSDOF 3
