REMARK  Name = opt61.pdb
REMARK  8 active torsions:
REMARK  status: ('A' for Active; 'I' for Inactive)
REMARK    1  A    between atoms: C_2  and  C_3
REMARK    2  A    between atoms: C_2  and  C_4
REMARK    3  A    between atoms: C_4  and  C_7
REMARK    4  A    between atoms: N_10  and  C_14
REMARK    5  A    between atoms: C_13  and  C_17
REMARK    6  A    between atoms: C_17  and  C_18
REMARK    7  A    between atoms: C_18  and  O_19
REMARK    8  A    between atoms: C_18  and  C_20
REMARK                            x       y       z     vdW  Elec       q    Type
REMARK                         _______ _______ _______ _____ _____    ______ ____
ROOT
ATOM      1  C   UNL     1       4.624   0.841  -0.633  0.00  0.00    +0.000 C 
ATOM      2  N   UNL     1       5.063   1.702   0.513  0.00  0.00    +0.000 NA
ATOM      3  C   UNL     1       5.188   1.455  -1.948  0.00  0.00    +0.000 C 
ATOM      4  C   UNL     1       4.616   3.128   0.438  0.00  0.00    +0.000 C 
ATOM      5  C   UNL     1       5.083   1.108   1.874  0.00  0.00    +0.000 C 
ATOM      6  C   UNL     1       4.881   2.962  -2.101  0.00  0.00    +0.000 C 
ATOM      7  C   UNL     1       5.262   3.745  -0.825  0.00  0.00    +0.000 C 
ENDROOT
BRANCH   1   8
ATOM      8  C   UNL     1       5.094  -0.639  -0.502  0.00  0.00    +0.000 C 
BRANCH   8  10
ATOM      9  O   UNL     1       5.127  -1.677  -2.622  0.00  0.00    +0.000 OA
ATOM     10  C   UNL     1       4.513  -1.543  -1.580  0.00  0.00    +0.000 C 
BRANCH  10  11
ATOM     11  C   UNL     1       3.244  -2.325  -1.334  0.00  0.00    +0.000 A 
ATOM     12  C   UNL     1       2.800  -3.221  -2.315  0.00  0.00    +0.000 A 
ATOM     13  C   UNL     1       2.493  -2.206  -0.154  0.00  0.00    +0.000 A 
ATOM     14  C   UNL     1       1.663  -4.000  -2.114  0.00  0.00    +0.000 A 
ATOM     15  C   UNL     1       1.358  -2.990   0.048  0.00  0.00    +0.000 A 
ATOM     16  C   UNL     1       0.945  -3.893  -0.929  0.00  0.00    +0.000 A 
ENDBRANCH  10  11
ENDBRANCH   8  10
ENDBRANCH   1   8
BRANCH   4  17
ATOM     17  C   UNL     1       3.068   3.354   0.431  0.00  0.00    +0.000 C 
BRANCH  17  18
ATOM     18  C   UNL     1       2.336   2.860   1.704  0.00  0.00    +0.000 C 
BRANCH  18  19
ATOM     19  C   UNL     1       0.809   2.935   1.607  0.00  0.00    +0.000 A 
ATOM     20  C   UNL     1       0.156   2.249   0.576  0.00  0.00    +0.000 A 
ATOM     21  C   UNL     1       0.032   3.578   2.580  0.00  0.00    +0.000 A 
ATOM     22  C   UNL     1      -1.235   2.215   0.509  0.00  0.00    +0.000 A 
ATOM     23  C   UNL     1      -1.360   3.535   2.519  0.00  0.00    +0.000 A 
ATOM     24  C   UNL     1      -1.995   2.853   1.484  0.00  0.00    +0.000 A 
ENDBRANCH  18  19
BRANCH  18  25
ATOM     25  O   UNL     1       2.847   3.581   2.831  0.00  0.00    +0.000 OA
ATOM     26  H   UNL     1       2.661   4.528   2.697  0.00  0.00    +0.000 HD
ENDBRANCH  18  25
ENDBRANCH  17  18
ENDBRANCH   4  17
TORSDOF 7
