REMARK  Name = opt73.pdb
REMARK  19 active torsions:
REMARK  status: ('A' for Active; 'I' for Inactive)
REMARK    1  A    between atoms: C_5  and  O_9
REMARK    2  A    between atoms: C_7  and  O_13
REMARK    3  A    between atoms: O_9  and  C_16
REMARK    4  A    between atoms: C_12  and  C_18
REMARK    5  A    between atoms: C_19  and  C_24
REMARK    6  A    between atoms: C_21  and  O_26
REMARK    7  A    between atoms: C_25  and  C_35
REMARK    8  A    between atoms: C_27  and  O_36
REMARK    9  A    between atoms: C_34  and  O_42
REMARK   10  A    between atoms: C_35  and  O_43
REMARK   11  A    between atoms: C_38  and  O_45
REMARK   12  A    between atoms: C_39  and  C_47
REMARK   13  A    between atoms: C_40  and  O_48
REMARK   14  A    between atoms: O_48  and  C_52
REMARK   15  A    between atoms: C_54  and  O_56
REMARK   16  A    between atoms: C_55  and  C_59
REMARK   17  A    between atoms: C_57  and  O_60
REMARK   18  A    between atoms: C_58  and  O_61
REMARK   19  A    between atoms: C_59  and  O_62
REMARK                            x       y       z     vdW  Elec       q    Type
REMARK                         _______ _______ _______ _____ _____    ______ ____
ROOT
ATOM      1  O   UNL     1       0.943  -0.130  -0.138  0.00  0.00    +0.000 OA
ATOM      2  C   UNL     1       2.151  -0.223  -0.288  0.00  0.00    +0.000 C 
ATOM      3  C   UNL     1       3.000   0.995  -0.549  0.00  0.00    +0.000 A 
ATOM      4  C   UNL     1       2.823  -1.574  -0.360  0.00  0.00    +0.000 A 
ATOM      5  C   UNL     1       2.422   2.268  -0.789  0.00  0.00    +0.000 A 
ATOM      6  C   UNL     1       4.401   0.838  -0.640  0.00  0.00    +0.000 A 
ATOM      7  C   UNL     1       2.097  -2.775  -0.267  0.00  0.00    +0.000 A 
ATOM      8  C   UNL     1       4.213  -1.643  -0.534  0.00  0.00    +0.000 A 
ATOM      9  C   UNL     1       3.237   3.350  -1.123  0.00  0.00    +0.000 A 
ATOM     10  C   UNL     1       5.170   1.933  -1.063  0.00  0.00    +0.000 A 
ATOM     11  C   UNL     1       5.018  -0.457  -0.346  0.00  0.00    +0.000 C 
ATOM     12  C   UNL     1       2.749  -4.003  -0.340  0.00  0.00    +0.000 A 
ATOM     13  C   UNL     1       4.847  -2.883  -0.675  0.00  0.00    +0.000 A 
ATOM     14  C   UNL     1       4.601   3.178  -1.280  0.00  0.00    +0.000 A 
ATOM     15  C   UNL     1       4.128  -4.072  -0.529  0.00  0.00    +0.000 A 
ENDROOT
BRANCH  11  16
ATOM     16  C   UNL     1       5.846  -0.518   0.871  0.00  0.00    +0.000 C 
ATOM     17  C   UNL     1       6.944   0.430   0.892  0.00  0.00    +0.000 A 
ATOM     18  C   UNL     1       5.091  -0.750   2.106  0.00  0.00    +0.000 A 
ATOM     19  C   UNL     1       6.970   1.444   1.858  0.00  0.00    +0.000 A 
ATOM     20  C   UNL     1       7.901   0.418  -0.132  0.00  0.00    +0.000 A 
ATOM     21  C   UNL     1       4.941   0.298   3.026  0.00  0.00    +0.000 A 
ATOM     22  C   UNL     1       4.474  -1.980   2.391  0.00  0.00    +0.000 A 
ATOM     23  C   UNL     1       5.866   1.490   2.884  0.00  0.00    +0.000 C 
ATOM     24  C   UNL     1       8.007   2.405   1.821  0.00  0.00    +0.000 A 
ATOM     25  C   UNL     1       8.830   1.456  -0.253  0.00  0.00    +0.000 A 
ATOM     26  C   UNL     1       4.001   0.161   4.082  0.00  0.00    +0.000 A 
ATOM     27  C   UNL     1       3.565  -2.112   3.430  0.00  0.00    +0.000 A 
ATOM     28  O   UNL     1       5.784   2.451   3.613  0.00  0.00    +0.000 OA
ATOM     29  C   UNL     1       8.898   2.418   0.752  0.00  0.00    +0.000 A 
ATOM     30  C   UNL     1       3.293  -1.028   4.248  0.00  0.00    +0.000 A 
BRANCH  25  31
ATOM     31  C   UNL     1       9.700   1.584  -1.473  0.00  0.00    +0.000 C 
ATOM     32  O   UNL     1       9.560   0.771  -2.364  0.00  0.00    +0.000 OA
ATOM     33  O   UNL     1      10.451   2.537  -1.549  0.00  0.00    +0.000 OA
ENDBRANCH  25  31
BRANCH  24  34
ATOM     34  O   UNL     1       8.214   3.352   2.799  0.00  0.00    +0.000 OA
ATOM     35  H   UNL     1       7.753   3.118   3.629  0.00  0.00    +0.000 HD
ENDBRANCH  24  34
BRANCH  26  36
ATOM     36  O   UNL     1       3.684   1.229   4.901  0.00  0.00    +0.000 OA
BRANCH  36  37
ATOM     37  C   UNL     1       3.160   1.237   6.275  0.00  0.00    +0.000 C 
ATOM     38  O   UNL     1       4.124   1.870   7.146  0.00  0.00    +0.000 OA
ATOM     39  C   UNL     1       1.918   2.166   6.302  0.00  0.00    +0.000 C 
ATOM     40  C   UNL     1       4.729   3.050   6.560  0.00  0.00    +0.000 C 
ATOM     41  C   UNL     1       2.295   3.454   5.562  0.00  0.00    +0.000 C 
ATOM     42  C   UNL     1       3.667   4.062   5.996  0.00  0.00    +0.000 C 
BRANCH  42  43
ATOM     43  O   UNL     1       4.189   4.639   4.793  0.00  0.00    +0.000 OA
ATOM     44  H   UNL     1       4.183   3.926   4.100  0.00  0.00    +0.000 HD
ENDBRANCH  42  43
BRANCH  41  45
ATOM     45  O   UNL     1       1.256   4.416   5.738  0.00  0.00    +0.000 OA
ATOM     46  H   UNL     1       1.406   5.067   5.044  0.00  0.00    +0.000 HD
ENDBRANCH  41  45
BRANCH  39  47
ATOM     47  O   UNL     1       1.472   2.529   7.626  0.00  0.00    +0.000 OA
ATOM     48  H   UNL     1       1.010   3.405   7.551  0.00  0.00    +0.000 HD
ENDBRANCH  39  47
BRANCH  40  49
ATOM     49  C   UNL     1       5.751   3.658   7.536  0.00  0.00    +0.000 C 
BRANCH  49  50
ATOM     50  O   UNL     1       6.789   2.695   7.810  0.00  0.00    +0.000 OA
ATOM     51  H   UNL     1       7.081   2.253   6.979  0.00  0.00    +0.000 HD
ENDBRANCH  49  50
ENDBRANCH  40  49
ENDBRANCH  36  37
ENDBRANCH  26  36
ENDBRANCH  11  16
BRANCH  15  52
ATOM     52  C   UNL     1       4.834  -5.396  -0.460  0.00  0.00    +0.000 C 
ATOM     53  O   UNL     1       4.169  -6.394  -0.260  0.00  0.00    +0.000 OA
ATOM     54  O   UNL     1       6.045  -5.408  -0.545  0.00  0.00    +0.000 OA
ENDBRANCH  15  52
BRANCH   7  55
ATOM     55  O   UNL     1       0.750  -2.781  -0.047  0.00  0.00    +0.000 OA
ATOM     56  H   UNL     1       0.482  -1.843   0.045  0.00  0.00    +0.000 HD
ENDBRANCH   7  55
BRANCH   5  57
ATOM     57  O   UNL     1       1.041   2.473  -0.753  0.00  0.00    +0.000 OA
BRANCH  57  58
ATOM     58  C   UNL     1       0.352   3.379  -1.658  0.00  0.00    +0.000 C 
ATOM     59  O   UNL     1       0.540   2.985  -3.041  0.00  0.00    +0.000 OA
ATOM     60  C   UNL     1      -1.166   3.415  -1.358  0.00  0.00    +0.000 C 
ATOM     61  C   UNL     1       0.013   1.679  -3.414  0.00  0.00    +0.000 C 
ATOM     62  C   UNL     1      -1.822   2.051  -1.682  0.00  0.00    +0.000 C 
ATOM     63  C   UNL     1      -1.514   1.625  -3.137  0.00  0.00    +0.000 C 
BRANCH  60  64
ATOM     64  O   UNL     1      -1.760   4.452  -2.154  0.00  0.00    +0.000 OA
ATOM     65  H   UNL     1      -1.364   4.409  -3.048  0.00  0.00    +0.000 HD
ENDBRANCH  60  64
BRANCH  62  66
ATOM     66  O   UNL     1      -3.246   2.116  -1.478  0.00  0.00    +0.000 OA
ATOM     67  H   UNL     1      -3.633   2.776  -2.086  0.00  0.00    +0.000 HD
ENDBRANCH  62  66
BRANCH  63  68
ATOM     68  O   UNL     1      -2.019   0.300  -3.347  0.00  0.00    +0.000 OA
ATOM     69  H   UNL     1      -2.127  -0.135  -2.477  0.00  0.00    +0.000 HD
ENDBRANCH  63  68
BRANCH  61  70
ATOM     70  C   UNL     1       0.339   1.457  -4.909  0.00  0.00    +0.000 C 
BRANCH  70  71
ATOM     71  O   UNL     1      -0.029   2.602  -5.694  0.00  0.00    +0.000 OA
ATOM     72  H   UNL     1       0.582   3.333  -5.474  0.00  0.00    +0.000 HD
ENDBRANCH  70  71
ENDBRANCH  61  70
ENDBRANCH  57  58
ENDBRANCH   5  57
TORSDOF 19
