REMARK  Name = opt76.pdb
REMARK  15 active torsions:
REMARK  status: ('A' for Active; 'I' for Inactive)
REMARK    1  A    between atoms: C_2  and  O_4
REMARK    2  A    between atoms: C_3  and  C_7
REMARK    3  A    between atoms: O_4  and  C_8
REMARK    4  A    between atoms: C_5  and  O_9
REMARK    5  A    between atoms: C_6  and  O_11
REMARK    6  A    between atoms: C_7  and  O_12
REMARK    7  A    between atoms: C_8  and  C_13
REMARK    8  A    between atoms: C_8  and  C_14
REMARK    9  A    between atoms: C_10  and  O_15
REMARK   10  A    between atoms: O_12  and  C_16
REMARK   11  A    between atoms: C_21  and  O_25
REMARK   12  A    between atoms: C_24  and  C_29
REMARK   13  A    between atoms: C_26  and  O_30
REMARK   14  A    between atoms: C_28  and  O_31
REMARK   15  A    between atoms: C_29  and  O_32
REMARK                            x       y       z     vdW  Elec       q    Type
REMARK                         _______ _______ _______ _____ _____    ______ ____
ROOT
ATOM      1  O   UNL     1      -1.158  -1.300   0.021  0.00  0.00    +0.000 OA
ATOM      2  C   UNL     1      -1.646  -0.216  -0.812  0.00  0.00    +0.000 C 
ATOM      3  C   UNL     1       0.251  -1.620  -0.143  0.00  0.00    +0.000 C 
ATOM      4  C   UNL     1      -0.874   1.072  -0.437  0.00  0.00    +0.000 C 
ATOM      5  C   UNL     1       1.097  -0.379   0.234  0.00  0.00    +0.000 C 
ATOM      6  C   UNL     1       0.645   0.842  -0.599  0.00  0.00    +0.000 C 
ENDROOT
BRANCH   6   7
ATOM      7  O   UNL     1       1.338   2.018  -0.175  0.00  0.00    +0.000 OA
ATOM      8  H   UNL     1       0.909   2.318   0.650  0.00  0.00    +0.000 HD
ENDBRANCH   6   7
BRANCH   4   9
ATOM      9  O   UNL     1      -1.190   1.429   0.917  0.00  0.00    +0.000 OA
ATOM     10  H   UNL     1      -1.554   0.630   1.354  0.00  0.00    +0.000 HD
ENDBRANCH   4   9
BRANCH   5  11
ATOM     11  O   UNL     1       2.493  -0.640   0.024  0.00  0.00    +0.000 OA
ATOM     12  H   UNL     1       2.650  -0.893  -0.904  0.00  0.00    +0.000 HD
ENDBRANCH   5  11
BRANCH   2  13
ATOM     13  O   UNL     1      -3.070  -0.040  -0.574  0.00  0.00    +0.000 OA
BRANCH  13  14
ATOM     14  C   UNL     1      -3.778   0.961  -1.364  0.00  0.00    +0.000 C 
BRANCH  14  15
ATOM     15  C   UNL     1      -5.229   1.055  -0.912  0.00  0.00    +0.000 A 
ATOM     16  C   UNL     1      -5.888   2.286  -0.978  0.00  0.00    +0.000 A 
ATOM     17  C   UNL     1      -5.921  -0.065  -0.441  0.00  0.00    +0.000 A 
ATOM     18  C   UNL     1      -7.218   2.398  -0.575  0.00  0.00    +0.000 A 
ATOM     19  C   UNL     1      -7.249   0.047  -0.034  0.00  0.00    +0.000 A 
ATOM     20  C   UNL     1      -7.898   1.279  -0.101  0.00  0.00    +0.000 A 
ENDBRANCH  14  15
BRANCH  14  21
ATOM     21  C   UNL     1      -3.708   0.635  -2.800  0.00  0.00    +0.000 C 
ATOM     22  N   UNL     1      -3.611   0.397  -3.909  0.00  0.00    +0.000 NA
ENDBRANCH  14  21
ENDBRANCH  13  14
ENDBRANCH   2  13
BRANCH   3  23
ATOM     23  C   UNL     1       0.608  -2.798   0.783  0.00  0.00    +0.000 C 
BRANCH  23  24
ATOM     24  O   UNL     1      -0.135  -3.984   0.416  0.00  0.00    +0.000 OA
BRANCH  24  25
ATOM     25  C   UNL     1       0.322  -5.150   1.137  0.00  0.00    +0.000 C 
ATOM     26  O   UNL     1       0.047  -5.032   2.560  0.00  0.00    +0.000 OA
ATOM     27  C   UNL     1      -0.326  -6.434   0.572  0.00  0.00    +0.000 C 
ATOM     28  C   UNL     1      -1.357  -5.026   2.941  0.00  0.00    +0.000 C 
ATOM     29  C   UNL     1      -1.814  -6.559   0.981  0.00  0.00    +0.000 C 
ATOM     30  C   UNL     1      -1.992  -6.372   2.509  0.00  0.00    +0.000 C 
BRANCH  30  31
ATOM     31  O   UNL     1      -3.387  -6.401   2.843  0.00  0.00    +0.000 OA
ATOM     32  H   UNL     1      -3.903  -6.024   2.108  0.00  0.00    +0.000 HD
ENDBRANCH  30  31
BRANCH  29  33
ATOM     33  O   UNL     1      -2.303  -7.846   0.583  0.00  0.00    +0.000 OA
ATOM     34  H   UNL     1      -1.625  -8.509   0.826  0.00  0.00    +0.000 HD
ENDBRANCH  29  33
BRANCH  27  35
ATOM     35  O   UNL     1       0.415  -7.542   1.084  0.00  0.00    +0.000 OA
ATOM     36  H   UNL     1       0.635  -7.316   2.006  0.00  0.00    +0.000 HD
ENDBRANCH  27  35
BRANCH  28  37
ATOM     37  C   UNL     1      -1.456  -4.780   4.466  0.00  0.00    +0.000 C 
BRANCH  37  38
ATOM     38  O   UNL     1      -0.602  -5.664   5.201  0.00  0.00    +0.000 OA
ATOM     39  H   UNL     1       0.236  -5.200   5.386  0.00  0.00    +0.000 HD
ENDBRANCH  37  38
ENDBRANCH  28  37
ENDBRANCH  24  25
ENDBRANCH  23  24
ENDBRANCH   3  23
TORSDOF 15
