REMARK  Name = opt77.pdb
REMARK  1 active torsions:
REMARK  status: ('A' for Active; 'I' for Inactive)
REMARK    1  A    between atoms: N_1  and  C_2
REMARK                            x       y       z     vdW  Elec       q    Type
REMARK                         _______ _______ _______ _____ _____    ______ ____
ROOT
ATOM      1  C   UNL     1       2.829  -0.125  -0.378  0.00  0.00    +0.000 C 
ATOM      2  C   UNL     1       3.114  -1.400   0.460  0.00  0.00    +0.000 C 
ATOM      3  C   UNL     1       3.807  -0.076  -1.583  0.00  0.00    +0.000 C 
ATOM      4  C   UNL     1       3.052   1.131   0.508  0.00  0.00    +0.000 C 
ATOM      5  C   UNL     1       4.577  -1.374   0.976  0.00  0.00    +0.000 C 
ATOM      6  C   UNL     1       5.271  -0.052  -1.071  0.00  0.00    +0.000 C 
ATOM      7  C   UNL     1       4.515   1.159   1.022  0.00  0.00    +0.000 C 
ATOM      8  C   UNL     1       5.546  -1.327  -0.233  0.00  0.00    +0.000 C 
ATOM      9  C   UNL     1       4.789  -0.118   1.858  0.00  0.00    +0.000 C 
ATOM     10  C   UNL     1       5.486   1.202  -0.185  0.00  0.00    +0.000 C 
ENDROOT
BRANCH   1  11
ATOM     11  N   UNL     1       1.437  -0.155  -0.861  0.00  0.00    +0.000 NA
ATOM     12  H   UNL     1       0.797  -0.245  -0.075  0.00  0.00    +0.000 HD
ATOM     13  H   UNL     1       1.213   0.717  -1.335  0.00  0.00    +0.000 HD
ENDBRANCH   1  11
TORSDOF 1
