REMARK  Name = opt74.pdb
REMARK  3 active torsions:
REMARK  status: ('A' for Active; 'I' for Inactive)
REMARK    1  A    between atoms: C_10  and  O_12
REMARK    2  A    between atoms: C_11  and  O_13
REMARK    3  A    between atoms: O_13  and  C_14
REMARK                            x       y       z     vdW  Elec       q    Type
REMARK                         _______ _______ _______ _____ _____    ______ ____
ROOT
ATOM      1  O   UNL     1       3.499   1.032  -0.008  0.00  0.00    +0.000 OA
ATOM      2  C   UNL     1       2.461   0.404  -0.005  0.00  0.00    +0.000 A 
ATOM      3  O   UNL     1       1.258   1.032  -0.005  0.00  0.00    +0.000 OA
ATOM      4  C   UNL     1       2.394  -1.067  -0.001  0.00  0.00    +0.000 A 
ATOM      5  C   UNL     1       0.037   0.390   0.003  0.00  0.00    +0.000 A 
ATOM      6  C   UNL     1       1.146  -1.778   0.002  0.00  0.00    +0.000 A 
ATOM      7  C   UNL     1      -0.031  -1.042   0.003  0.00  0.00    +0.000 A 
ATOM      8  C   UNL     1      -1.169   1.165  -0.004  0.00  0.00    +0.000 A 
ATOM      9  C   UNL     1      -1.283  -1.653   0.004  0.00  0.00    +0.000 A 
ATOM     10  C   UNL     1      -2.404   0.516  -0.003  0.00  0.00    +0.000 A 
ATOM     11  C   UNL     1      -2.460  -0.897   0.002  0.00  0.00    +0.000 A 
ENDROOT
BRANCH  10  12
ATOM     12  O   UNL     1      -3.525   1.300  -0.007  0.00  0.00    +0.000 OA
ATOM     13  H   UNL     1      -3.271   2.240  -0.010  0.00  0.00    +0.000 HD
ENDBRANCH  10  12
BRANCH  11  14
ATOM     14  O   UNL     1      -3.631  -1.648   0.006  0.00  0.00    +0.000 OA
ATOM     15  C   UNL     1      -4.981  -1.126   0.006  0.00  0.00    +0.000 C 
ENDBRANCH  11  14
TORSDOF 2
