REMARK  Name = opt71.pdb
REMARK  9 active torsions:
REMARK  status: ('A' for Active; 'I' for Inactive)
REMARK    1  A    between atoms: C_2  and  O_3
REMARK    2  A    between atoms: C_2  and  C_4
REMARK    3  A    between atoms: O_3  and  C_5
REMARK    4  A    between atoms: C_4  and  C_7
REMARK    5  A    between atoms: C_19  and  C_27
REMARK    6  A    between atoms: N_23  and  C_29
REMARK    7  A    between atoms: C_27  and  O_31
REMARK    8  A    between atoms: O_31  and  C_32
REMARK    9  A    between atoms: N_37  and  C_40
REMARK                            x       y       z     vdW  Elec       q    Type
REMARK                         _______ _______ _______ _____ _____    ______ ____
ROOT
ATOM      1  C   UNL     1       2.529  -2.948   1.343  0.00  0.00    +0.000 C 
ATOM      2  C   UNL     1       3.426  -2.717   2.490  0.00  0.00    +0.000 A 
ATOM      3  C   UNL     1       2.239  -4.401   0.949  0.00  0.00    +0.000 C 
ATOM      4  C   UNL     1       3.797  -3.790   3.328  0.00  0.00    +0.000 A 
ATOM      5  C   UNL     1       4.012  -1.459   2.737  0.00  0.00    +0.000 A 
ATOM      6  C   UNL     1       2.192  -5.427   2.098  0.00  0.00    +0.000 C 
ATOM      7  C   UNL     1       4.809  -3.620   4.280  0.00  0.00    +0.000 A 
ATOM      8  C   UNL     1       3.156  -5.085   3.224  0.00  0.00    +0.000 C 
ATOM      9  C   UNL     1       4.998  -1.296   3.705  0.00  0.00    +0.000 A 
ATOM     10  C   UNL     1       5.413  -2.383   4.464  0.00  0.00    +0.000 A 
ENDROOT
BRANCH   1  11
ATOM     11  C   UNL     1       1.412  -2.208   1.972  0.00  0.00    +0.000 A 
ATOM     12  C   UNL     1       0.949  -1.000   1.416  0.00  0.00    +0.000 A 
ATOM     13  C   UNL     1       0.726  -2.686   3.108  0.00  0.00    +0.000 A 
ATOM     14  C   UNL     1      -0.144  -0.322   1.952  0.00  0.00    +0.000 A 
ATOM     15  C   UNL     1      -0.363  -2.005   3.646  0.00  0.00    +0.000 A 
ATOM     16  C   UNL     1      -0.807  -0.825   3.064  0.00  0.00    +0.000 A 
ENDBRANCH   1  11
BRANCH   8  17
ATOM     17  C   UNL     1       2.789  -5.886   4.418  0.00  0.00    +0.000 C 
ATOM     18  O   UNL     1       2.521  -7.074   4.399  0.00  0.00    +0.000 OA
BRANCH  17  19
ATOM     19  O   UNL     1       2.598  -5.112   5.516  0.00  0.00    +0.000 OA
BRANCH  19  20
ATOM     20  C   UNL     1       2.266  -5.709   6.800  0.00  0.00    +0.000 C 
ATOM     21  C   UNL     1       3.566  -6.182   7.510  0.00  0.00    +0.000 C 
ATOM     22  C   UNL     1       1.498  -4.659   7.645  0.00  0.00    +0.000 C 
ATOM     23  C   UNL     1       3.349  -6.402   9.037  0.00  0.00    +0.000 C 
ATOM     24  C   UNL     1       1.473  -5.036   9.156  0.00  0.00    +0.000 C 
ATOM     25  N   UNL     1       2.844  -5.174   9.683  0.00  0.00    +0.000 NA
ATOM     26  C   UNL     1       2.179  -7.375   9.301  0.00  0.00    +0.000 C 
ATOM     27  C   UNL     1       0.927  -6.466   9.372  0.00  0.00    +0.000 C 
ATOM     28  C   UNL     1       3.712  -3.973   9.660  0.00  0.00    +0.000 C 
ENDBRANCH  19  20
ENDBRANCH  17  19
ENDBRANCH   8  17
BRANCH   1  30
ATOM     29  O   UNL     1       2.305  -2.553  -1.035  0.00  0.00    +0.000 OA
ATOM     30  C   UNL     1       2.950  -2.422  -0.008  0.00  0.00    +0.000 C 
BRANCH  30  31
ATOM     31  O   UNL     1       4.139  -1.772  -0.005  0.00  0.00    +0.000 OA
BRANCH  31  32
ATOM     32  C   UNL     1       4.696  -1.114  -1.178  0.00  0.00    +0.000 C 
ATOM     33  C   UNL     1       3.800   0.079  -1.632  0.00  0.00    +0.000 C 
ATOM     34  C   UNL     1       6.124  -0.657  -0.769  0.00  0.00    +0.000 C 
ATOM     35  C   UNL     1       4.591   1.152  -2.438  0.00  0.00    +0.000 C 
ATOM     36  C   UNL     1       6.673   0.494  -1.658  0.00  0.00    +0.000 C 
ATOM     37  N   UNL     1       5.747   1.642  -1.663  0.00  0.00    +0.000 NA
ATOM     38  C   UNL     1       5.289   0.534  -3.669  0.00  0.00    +0.000 C 
ATOM     39  C   UNL     1       6.676   0.092  -3.148  0.00  0.00    +0.000 C 
ATOM     40  C   UNL     1       5.467   2.305  -0.367  0.00  0.00    +0.000 C 
ENDBRANCH  31  32
ENDBRANCH  30  31
ENDBRANCH   1  30
TORSDOF 7
