REMARK  Name = opt72.pdb
REMARK  13 active torsions:
REMARK  status: ('A' for Active; 'I' for Inactive)
REMARK    1  A    between atoms: C_2  and  O_4
REMARK    2  A    between atoms: C_3  and  C_7
REMARK    3  A    between atoms: O_4  and  C_8
REMARK    4  A    between atoms: C_5  and  O_9
REMARK    5  A    between atoms: C_6  and  O_11
REMARK    6  A    between atoms: C_7  and  O_12
REMARK    7  A    between atoms: C_10  and  O_15
REMARK    8  A    between atoms: C_16  and  O_18
REMARK    9  A    between atoms: C_17  and  C_20
REMARK   10  A    between atoms: C_21  and  C_22
REMARK   11  A    between atoms: C_25  and  O_27
REMARK   12  A    between atoms: C_28  and  O_29
REMARK   13  A    between atoms: O_29  and  C_30
REMARK                            x       y       z     vdW  Elec       q    Type
REMARK                         _______ _______ _______ _____ _____    ______ ____
ROOT
ATOM      1  C   UNL     1      -3.600   0.069   0.980  0.00  0.00    +0.000 A 
ATOM      2  C   UNL     1      -2.766   0.133   2.104  0.00  0.00    +0.000 A 
ATOM      3  C   UNL     1      -4.972   0.258   1.135  0.00  0.00    +0.000 A 
ATOM      4  C   UNL     1      -3.296   0.439   3.353  0.00  0.00    +0.000 A 
ATOM      5  C   UNL     1      -5.507   0.539   2.393  0.00  0.00    +0.000 A 
ATOM      6  C   UNL     1      -4.663   0.643   3.499  0.00  0.00    +0.000 A 
ENDROOT
BRANCH   4   7
ATOM      7  O   UNL     1      -2.470   0.574   4.427  0.00  0.00    +0.000 OA
ATOM      8  H   UNL     1      -1.550   0.606   4.113  0.00  0.00    +0.000 HD
ENDBRANCH   4   7
BRANCH   5   9
ATOM      9  C   UNL     1      -6.958   0.734   2.556  0.00  0.00    +0.000 C 
ATOM     10  C   UNL     1      -7.729   0.272   3.549  0.00  0.00    +0.000 C 
BRANCH  10  11
ATOM     11  C   UNL     1      -9.187   0.416   3.692  0.00  0.00    +0.000 A 
ATOM     12  C   UNL     1     -10.014   0.131   2.610  0.00  0.00    +0.000 A 
ATOM     13  C   UNL     1      -9.749   0.804   4.906  0.00  0.00    +0.000 A 
ATOM     14  C   UNL     1     -11.399   0.222   2.727  0.00  0.00    +0.000 A 
ATOM     15  C   UNL     1     -11.133   0.890   5.034  0.00  0.00    +0.000 A 
ATOM     16  C   UNL     1     -11.972   0.597   3.958  0.00  0.00    +0.000 A 
BRANCH  16  17
ATOM     17  O   UNL     1     -13.334   0.701   4.210  0.00  0.00    +0.000 OA
ATOM     18  C   UNL     1     -14.391   0.331   3.295  0.00  0.00    +0.000 C 
ENDBRANCH  16  17
BRANCH  14  19
ATOM     19  O   UNL     1     -12.127  -0.066   1.610  0.00  0.00    +0.000 OA
ATOM     20  H   UNL     1     -11.508  -0.262   0.883  0.00  0.00    +0.000 HD
ENDBRANCH  14  19
ENDBRANCH  10  11
ENDBRANCH   5   9
BRANCH   1  21
ATOM     21  O   UNL     1      -3.100  -0.107  -0.301  0.00  0.00    +0.000 OA
BRANCH  21  23
ATOM     22  O   UNL     1      -1.379   1.487  -0.057  0.00  0.00    +0.000 OA
ATOM     23  C   UNL     1      -1.726   0.203  -0.630  0.00  0.00    +0.000 C 
ATOM     24  C   UNL     1      -0.004   1.875  -0.230  0.00  0.00    +0.000 C 
ATOM     25  C   UNL     1      -1.543   0.280  -2.166  0.00  0.00    +0.000 C 
ATOM     26  C   UNL     1       0.211   2.094  -1.748  0.00  0.00    +0.000 C 
ATOM     27  C   UNL     1      -0.110   0.775  -2.496  0.00  0.00    +0.000 C 
BRANCH  25  28
ATOM     28  O   UNL     1      -2.509   1.174  -2.743  0.00  0.00    +0.000 OA
ATOM     29  H   UNL     1      -2.653   1.912  -2.122  0.00  0.00    +0.000 HD
ENDBRANCH  25  28
BRANCH  26  30
ATOM     30  O   UNL     1       1.556   2.502  -2.024  0.00  0.00    +0.000 OA
ATOM     31  H   UNL     1       2.035   1.760  -2.428  0.00  0.00    +0.000 HD
ENDBRANCH  26  30
BRANCH  27  32
ATOM     32  O   UNL     1      -0.009   0.984  -3.901  0.00  0.00    +0.000 OA
ATOM     33  H   UNL     1      -0.860   1.386  -4.161  0.00  0.00    +0.000 HD
ENDBRANCH  27  32
BRANCH  24  34
ATOM     34  C   UNL     1       0.212   3.137   0.628  0.00  0.00    +0.000 C 
BRANCH  34  35
ATOM     35  O   UNL     1       1.597   3.457   0.651  0.00  0.00    +0.000 OA
ATOM     36  H   UNL     1       1.896   3.382  -0.279  0.00  0.00    +0.000 HD
ENDBRANCH  34  35
ENDBRANCH  24  34
ENDBRANCH  21  23
ENDBRANCH   1  21
TORSDOF 12
