REMARK  Name = opt79.pdb
REMARK  5 active torsions:
REMARK  status: ('A' for Active; 'I' for Inactive)
REMARK    1  A    between atoms: C_2  and  C_4
REMARK    2  A    between atoms: C_4  and  O_5
REMARK    3  A    between atoms: C_8  and  O_10
REMARK    4  A    between atoms: C_9  and  O_12
REMARK    5  A    between atoms: C_11  and  O_13
REMARK                            x       y       z     vdW  Elec       q    Type
REMARK                         _______ _______ _______ _____ _____    ______ ____
ROOT
ATOM      1  C   UNL     1       3.228  -0.696   1.013  0.00  0.00    +0.000 C 
ATOM      2  C   UNL     1       4.738  -0.528   0.726  0.00  0.00    +0.000 C 
ATOM      3  C   UNL     1       2.832  -2.194   1.102  0.00  0.00    +0.000 C 
ATOM      4  C   UNL     1       5.138  -1.289  -0.558  0.00  0.00    +0.000 C 
ATOM      5  C   UNL     1       3.267  -2.992  -0.151  0.00  0.00    +0.000 C 
ATOM      6  C   UNL     1       4.774  -2.791  -0.452  0.00  0.00    +0.000 C 
ENDROOT
BRANCH   1   8
ATOM      7  O   UNL     1       3.283  -0.429   3.344  0.00  0.00    +0.000 OA
ATOM      8  C   UNL     1       2.866   0.032   2.301  0.00  0.00    +0.000 C 
ATOM      9  O   UNL     1       2.214   1.057   2.218  0.00  0.00    +0.000 OA
ENDBRANCH   1   8
BRANCH   1  10
ATOM     10  O   UNL     1       2.498  -0.072  -0.045  0.00  0.00    +0.000 OA
ATOM     11  H   UNL     1       2.137   0.710   0.411  0.00  0.00    +0.000 HD
ENDBRANCH   1  10
BRANCH   4  12
ATOM     12  O   UNL     1       6.542  -1.158  -0.779  0.00  0.00    +0.000 OA
ATOM     13  H   UNL     1       6.965  -1.641  -0.052  0.00  0.00    +0.000 HD
ENDBRANCH   4  12
BRANCH   5  14
ATOM     14  O   UNL     1       2.482  -2.575  -1.275  0.00  0.00    +0.000 OA
ATOM     15  H   UNL     1       2.291  -1.615  -1.128  0.00  0.00    +0.000 HD
ENDBRANCH   5  14
BRANCH   6  16
ATOM     16  O   UNL     1       5.564  -3.425   0.569  0.00  0.00    +0.000 OA
ATOM     17  H   UNL     1       5.364  -2.999   1.428  0.00  0.00    +0.000 HD
ENDBRANCH   6  16
TORSDOF 5
