REMARK  Name = opt75.pdb
REMARK  4 active torsions:
REMARK  status: ('A' for Active; 'I' for Inactive)
REMARK    1  A    between atoms: C_6  and  O_10
REMARK    2  A    between atoms: C_7  and  C_12
REMARK    3  A    between atoms: C_13  and  O_16
REMARK    4  A    between atoms: C_19  and  O_20
REMARK                            x       y       z     vdW  Elec       q    Type
REMARK                         _______ _______ _______ _____ _____    ______ ____
ROOT
ATOM      1  O   UNL     1       2.394   1.699   0.245  0.00  0.00    +0.000 OA
ATOM      2  C   UNL     1       1.899   0.587   0.228  0.00  0.00    +0.000 C 
ATOM      3  C   UNL     1       0.412   0.331   0.165  0.00  0.00    +0.000 A 
ATOM      4  C   UNL     1       2.797  -0.627   0.265  0.00  0.00    +0.000 C 
ATOM      5  C   UNL     1      -0.043  -0.997   0.106  0.00  0.00    +0.000 A 
ATOM      6  C   UNL     1      -0.528   1.372   0.152  0.00  0.00    +0.000 A 
ATOM      7  C   UNL     1       2.163  -1.740  -0.584  0.00  0.00    +0.000 C 
ATOM      8  O   UNL     1       0.864  -2.041  -0.012  0.00  0.00    +0.000 OA
ATOM      9  C   UNL     1      -1.411  -1.274   0.099  0.00  0.00    +0.000 A 
ATOM     10  C   UNL     1      -1.891   1.089   0.137  0.00  0.00    +0.000 A 
ATOM     11  C   UNL     1      -2.336  -0.229   0.123  0.00  0.00    +0.000 A 
ENDROOT
BRANCH   7  12
ATOM     12  C   UNL     1       3.063  -2.960  -0.677  0.00  0.00    +0.000 A 
ATOM     13  C   UNL     1       3.083  -3.950   0.309  0.00  0.00    +0.000 A 
ATOM     14  C   UNL     1       3.940  -3.051  -1.759  0.00  0.00    +0.000 A 
ATOM     15  C   UNL     1       3.979  -5.016   0.212  0.00  0.00    +0.000 A 
ATOM     16  C   UNL     1       4.833  -4.114  -1.858  0.00  0.00    +0.000 A 
ATOM     17  C   UNL     1       4.857  -5.094  -0.870  0.00  0.00    +0.000 A 
BRANCH  17  18
ATOM     18  O   UNL     1       5.758  -6.110  -0.972  0.00  0.00    +0.000 OA
ATOM     19  H   UNL     1       5.733  -6.662  -0.173  0.00  0.00    +0.000 HD
ENDBRANCH  17  18
ENDBRANCH   7  12
BRANCH   6  20
ATOM     20  O   UNL     1      -0.137   2.676   0.123  0.00  0.00    +0.000 OA
ATOM     21  H   UNL     1       0.841   2.675   0.043  0.00  0.00    +0.000 HD
ENDBRANCH   6  20
BRANCH  11  22
ATOM     22  O   UNL     1      -3.678  -0.474   0.101  0.00  0.00    +0.000 OA
ATOM     23  H   UNL     1      -3.850  -1.429   0.072  0.00  0.00    +0.000 HD
ENDBRANCH  11  22
TORSDOF 4
