REMARK  Name = opt70.pdb
REMARK  4 active torsions:
REMARK  status: ('A' for Active; 'I' for Inactive)
REMARK    1  A    between atoms: C_4  and  C_7
REMARK    2  A    between atoms: C_6  and  O_11
REMARK    3  A    between atoms: C_15  and  O_18
REMARK    4  A    between atoms: C_19  and  O_20
REMARK                            x       y       z     vdW  Elec       q    Type
REMARK                         _______ _______ _______ _____ _____    ______ ____
ROOT
ATOM      1  O   UNL     1      -2.464   1.711  -0.027  0.00  0.00    +0.000 OA
ATOM      2  C   UNL     1      -2.014   0.578  -0.028  0.00  0.00    +0.000 A 
ATOM      3  C   UNL     1      -0.562   0.288  -0.011  0.00  0.00    +0.000 A 
ATOM      4  C   UNL     1      -2.885  -0.614  -0.077  0.00  0.00    +0.000 A 
ATOM      5  C   UNL     1      -0.119  -1.029  -0.010  0.00  0.00    +0.000 A 
ATOM      6  C   UNL     1       0.461   1.327  -0.005  0.00  0.00    +0.000 A 
ATOM      7  C   UNL     1      -2.326  -1.879  -0.070  0.00  0.00    +0.000 A 
ATOM      8  O   UNL     1      -0.959  -2.135   0.013  0.00  0.00    +0.000 OA
ATOM      9  C   UNL     1       1.311  -1.299  -0.007  0.00  0.00    +0.000 A 
ATOM     10  C   UNL     1       1.817   1.037  -0.009  0.00  0.00    +0.000 A 
ATOM     11  C   UNL     1       2.257  -0.273  -0.011  0.00  0.00    +0.000 A 
ENDROOT
BRANCH   4  12
ATOM     12  C   UNL     1      -4.005  -0.542  -0.136  0.00  0.00    +0.000 A 
ATOM     13  C   UNL     1      -4.848  -0.491   0.997  0.00  0.00    +0.000 A 
ATOM     14  C   UNL     1      -4.613  -0.446  -1.407  0.00  0.00    +0.000 A 
ATOM     15  C   UNL     1      -6.236  -0.349   0.860  0.00  0.00    +0.000 A 
ATOM     16  C   UNL     1      -5.999  -0.307  -1.528  0.00  0.00    +0.000 A 
ATOM     17  C   UNL     1      -6.822  -0.253  -0.403  0.00  0.00    +0.000 A 
BRANCH  17  18
ATOM     18  O   UNL     1      -8.182  -0.107  -0.575  0.00  0.00    +0.000 OA
ATOM     19  H   UNL     1      -8.714   0.000   0.247  0.00  0.00    +0.000 HD
ENDBRANCH  17  18
ENDBRANCH   4  12
BRANCH   6  20
ATOM     20  O   UNL     1       0.138   2.645   0.008  0.00  0.00    +0.000 OA
ATOM     21  H   UNL     1      -0.832   2.679   0.016  0.00  0.00    +0.000 HD
ENDBRANCH   6  20
BRANCH  11  22
ATOM     22  O   UNL     1       3.611  -0.486  -0.010  0.00  0.00    +0.000 OA
ATOM     23  H   UNL     1       3.864  -1.421  -0.036  0.00  0.00    +0.000 HD
ENDBRANCH  11  22
TORSDOF 4
