REMARK  Name = opt80.pdb
REMARK  3 active torsions:
REMARK  status: ('A' for Active; 'I' for Inactive)
REMARK    1  A    between atoms: C_2  and  C_4
REMARK    2  A    between atoms: C_5  and  C_6
REMARK    3  A    between atoms: C_9  and  O_11
REMARK                            x       y       z     vdW  Elec       q    Type
REMARK                         _______ _______ _______ _____ _____    ______ ____
ROOT
ATOM      1  C   UNL     1       5.299  -2.344  -1.122  0.00  0.00    +0.000 A 
ATOM      2  C   UNL     1       4.938  -2.954  -2.326  0.00  0.00    +0.000 A 
ATOM      3  C   UNL     1       6.397  -2.829  -0.409  0.00  0.00    +0.000 A 
ATOM      4  C   UNL     1       5.663  -4.044  -2.808  0.00  0.00    +0.000 A 
ATOM      5  C   UNL     1       7.127  -3.914  -0.894  0.00  0.00    +0.000 A 
ATOM      6  C   UNL     1       6.759  -4.522  -2.092  0.00  0.00    +0.000 A 
ENDROOT
BRANCH   1   8
ATOM      7  C   UNL     1       3.223  -0.946  -0.713  0.00  0.00    +0.000 C 
ATOM      8  C   UNL     1       4.540  -1.184  -0.610  0.00  0.00    +0.000 C 
BRANCH   7  10
ATOM      9  O   UNL     1       1.296   0.272  -0.425  0.00  0.00    +0.000 OA
ATOM     10  C   UNL     1       2.488   0.231  -0.203  0.00  0.00    +0.000 C 
ATOM     11  O   UNL     1       3.114   1.083   0.395  0.00  0.00    +0.000 OA
ENDBRANCH   7  10
ENDBRANCH   1   8
BRANCH   4  12
ATOM     12  O   UNL     1       5.302  -4.644  -3.978  0.00  0.00    +0.000 OA
ATOM     13  H   UNL     1       4.504  -4.206  -4.327  0.00  0.00    +0.000 HD
ENDBRANCH   4  12
TORSDOF 3
