REMARK  Name = opt82.pdb
REMARK  3 active torsions:
REMARK  status: ('A' for Active; 'I' for Inactive)
REMARK    1  A    between atoms: C_2  and  C_4
REMARK    2  A    between atoms: C_5  and  C_6
REMARK    3  A    between atoms: C_11  and  O_12
REMARK                            x       y       z     vdW  Elec       q    Type
REMARK                         _______ _______ _______ _____ _____    ______ ____
ROOT
ATOM      1  C   UNL     1       5.295  -1.153  -2.406  0.00  0.00    +0.000 A 
ATOM      2  C   UNL     1       4.944  -0.899  -3.734  0.00  0.00    +0.000 A 
ATOM      3  C   UNL     1       6.404  -1.954  -2.130  0.00  0.00    +0.000 A 
ATOM      4  C   UNL     1       5.693  -1.444  -4.775  0.00  0.00    +0.000 A 
ATOM      5  C   UNL     1       7.157  -2.495  -3.170  0.00  0.00    +0.000 A 
ATOM      6  C   UNL     1       6.802  -2.242  -4.494  0.00  0.00    +0.000 A 
ENDROOT
BRANCH   1   8
ATOM      7  C   UNL     1       3.181  -0.422  -1.211  0.00  0.00    +0.000 C 
ATOM      8  C   UNL     1       4.513  -0.567  -1.298  0.00  0.00    +0.000 C 
BRANCH   7  10
ATOM      9  O   UNL     1       1.216   0.238  -0.218  0.00  0.00    +0.000 OA
ATOM     10  C   UNL     1       2.422   0.178  -0.093  0.00  0.00    +0.000 C 
ATOM     11  O   UNL     1       3.043   0.578   0.872  0.00  0.00    +0.000 OA
ENDBRANCH   7  10
ENDBRANCH   1   8
BRANCH   6  12
ATOM     12  O   UNL     1       7.541  -2.771  -5.511  0.00  0.00    +0.000 OA
ATOM     13  H   UNL     1       7.158  -2.500  -6.364  0.00  0.00    +0.000 HD
ENDBRANCH   6  12
TORSDOF 3
