REMARK  Name = opt85.pdb
REMARK  12 active torsions:
REMARK  status: ('A' for Active; 'I' for Inactive)
REMARK    1  A    between atoms: C_3  and  O_5
REMARK    2  A    between atoms: O_5  and  C_9
REMARK    3  A    between atoms: C_6  and  C_11
REMARK    4  A    between atoms: C_8  and  O_13
REMARK    5  A    between atoms: C_16  and  O_21
REMARK    6  A    between atoms: C_19  and  O_25
REMARK    7  A    between atoms: C_20  and  C_27
REMARK    8  A    between atoms: C_22  and  O_28
REMARK    9  A    between atoms: C_23  and  O_29
REMARK   10  A    between atoms: C_26  and  O_31
REMARK   11  A    between atoms: C_27  and  O_32
REMARK   12  A    between atoms: C_30  and  O_33
REMARK                            x       y       z     vdW  Elec       q    Type
REMARK                         _______ _______ _______ _____ _____    ______ ____
ROOT
ATOM      1  O   UNL     1      -2.150   1.363  -0.249  0.00  0.00    +0.000 OA
ATOM      2  C   UNL     1      -1.576   0.288  -0.251  0.00  0.00    +0.000 A 
ATOM      3  C   UNL     1      -2.276  -1.007  -0.541  0.00  0.00    +0.000 A 
ATOM      4  C   UNL     1      -0.117   0.188  -0.072  0.00  0.00    +0.000 A 
ATOM      5  C   UNL     1      -1.650  -1.971  -0.590  0.00  0.00    +0.000 A 
ATOM      6  C   UNL     1       0.387  -1.088  -0.164  0.00  0.00    +0.000 A 
ATOM      7  C   UNL     1       0.812   1.289   0.082  0.00  0.00    +0.000 A 
ATOM      8  O   UNL     1      -0.538  -2.098  -0.401  0.00  0.00    +0.000 OA
ATOM      9  C   UNL     1       1.832  -1.291  -0.165  0.00  0.00    +0.000 A 
ATOM     10  C   UNL     1       2.181   1.082   0.057  0.00  0.00    +0.000 A 
ATOM     11  C   UNL     1       2.700  -0.196  -0.069  0.00  0.00    +0.000 A 
ENDROOT
BRANCH   5  12
ATOM     12  C   UNL     1      -2.068  -3.348  -1.115  0.00  0.00    +0.000 A 
ATOM     13  C   UNL     1      -3.387  -3.808  -0.933  0.00  0.00    +0.000 A 
ATOM     14  C   UNL     1      -1.212  -4.198  -1.854  0.00  0.00    +0.000 A 
ATOM     15  C   UNL     1      -3.914  -4.883  -1.620  0.00  0.00    +0.000 A 
ATOM     16  C   UNL     1      -1.709  -5.352  -2.470  0.00  0.00    +0.000 A 
ATOM     17  C   UNL     1      -3.069  -5.656  -2.402  0.00  0.00    +0.000 A 
BRANCH  17  18
ATOM     18  O   UNL     1      -3.612  -6.675  -3.111  0.00  0.00    +0.000 OA
ATOM     19  H   UNL     1      -4.580  -6.550  -3.012  0.00  0.00    +0.000 HD
ENDBRANCH  17  18
BRANCH  15  20
ATOM     20  O   UNL     1      -5.264  -5.149  -1.549  0.00  0.00    +0.000 OA
ATOM     21  H   UNL     1      -5.777  -4.405  -1.148  0.00  0.00    +0.000 HD
ENDBRANCH  15  20
ENDBRANCH   5  12
BRANCH  11  22
ATOM     22  O   UNL     1       4.071  -0.281  -0.093  0.00  0.00    +0.000 OA
ATOM     23  H   UNL     1       4.420  -1.179  -0.098  0.00  0.00    +0.000 HD
ENDBRANCH  11  22
BRANCH   7  24
ATOM     24  O   UNL     1       0.412   2.579   0.203  0.00  0.00    +0.000 OA
ATOM     25  H   UNL     1      -0.548   2.580   0.085  0.00  0.00    +0.000 HD
ENDBRANCH   7  24
BRANCH   3  26
ATOM     26  O   UNL     1      -3.582  -0.765  -1.005  0.00  0.00    +0.000 OA
BRANCH  26  27
ATOM     27  C   UNL     1      -4.853  -1.062  -0.333  0.00  0.00    +0.000 C 
ATOM     28  O   UNL     1      -4.737  -1.642   0.978  0.00  0.00    +0.000 OA
ATOM     29  C   UNL     1      -5.833   0.120  -0.208  0.00  0.00    +0.000 C 
ATOM     30  C   UNL     1      -4.139  -0.870   2.025  0.00  0.00    +0.000 C 
ATOM     31  C   UNL     1      -5.348   1.137   0.847  0.00  0.00    +0.000 C 
ATOM     32  C   UNL     1      -4.879   0.488   2.179  0.00  0.00    +0.000 C 
BRANCH  29  33
ATOM     33  O   UNL     1      -7.124  -0.409   0.162  0.00  0.00    +0.000 OA
ATOM     34  H   UNL     1      -7.086  -0.804   1.058  0.00  0.00    +0.000 HD
ENDBRANCH  29  33
BRANCH  31  35
ATOM     35  O   UNL     1      -6.397   2.089   1.107  0.00  0.00    +0.000 OA
ATOM     36  H   UNL     1      -6.502   2.224   2.067  0.00  0.00    +0.000 HD
ENDBRANCH  31  35
BRANCH  32  37
ATOM     37  O   UNL     1      -3.951   1.414   2.731  0.00  0.00    +0.000 OA
ATOM     38  H   UNL     1      -4.211   1.579   3.639  0.00  0.00    +0.000 HD
ENDBRANCH  32  37
BRANCH  30  39
ATOM     39  C   UNL     1      -4.237  -1.829   3.230  0.00  0.00    +0.000 C 
BRANCH  39  40
ATOM     40  O   UNL     1      -3.369  -1.462   4.292  0.00  0.00    +0.000 OA
ATOM     41  H   UNL     1      -3.151  -2.296   4.755  0.00  0.00    +0.000 HD
ENDBRANCH  39  40
ENDBRANCH  30  39
ENDBRANCH  26  27
ENDBRANCH   3  26
TORSDOF 12
