REMARK  Name = opt83.pdb
REMARK  2 active torsions:
REMARK  status: ('A' for Active; 'I' for Inactive)
REMARK    1  A    between atoms: N_3  and  C_6
REMARK    2  A    between atoms: N_4  and  C_8
REMARK                            x       y       z     vdW  Elec       q    Type
REMARK                         _______ _______ _______ _____ _____    ______ ____
ROOT
ATOM      1  O   UNL A   1       1.374   0.300  -0.007  0.00  0.00    +0.000 OA
ATOM      2  C   UNL A   1       0.312  -0.292  -0.034  0.00  0.00    +0.000 C 
ATOM      3  N   UNL A   1      -0.887   0.375   0.015  0.00  0.00    +0.000 N 
ATOM      4  N   UNL A   1       0.275  -1.660  -0.003  0.00  0.00    +0.000 N 
ATOM      5  C   UNL A   1      -2.121  -0.205  -0.060  0.00  0.00    +0.000 C 
ATOM      6  C   UNL A   1      -0.877   1.852   0.182  0.00  0.00    +0.000 C 
ATOM      7  C   UNL A   1      -0.925  -2.362  -0.066  0.00  0.00    +0.000 C 
ATOM      8  C   UNL A   1       1.527  -2.442   0.144  0.00  0.00    +0.000 C 
ATOM      9  O   UNL A   1      -3.154   0.413   0.106  0.00  0.00    +0.000 OA
ATOM     10  C   UNL A   1      -2.162  -1.647  -0.506  0.00  0.00    +0.000 C 
ATOM     11  N   UNL A   1      -1.071  -3.676   0.295  0.00  0.00    +0.000 NA
ATOM     12  N   UNL A   1      -3.092  -2.742  -0.179  0.00  0.00    +0.000 NA
ATOM     13  C   UNL A   1      -2.427  -3.841   0.202  0.00  0.00    +0.000 C 
ENDROOT
TORSDOF 0
