REMARK  Name = opt87.pdb
REMARK  6 active torsions:
REMARK  status: ('A' for Active; 'I' for Inactive)
REMARK    1  A    between atoms: C_3  and  O_5
REMARK    2  A    between atoms: C_6  and  C_10
REMARK    3  A    between atoms: C_8  and  O_12
REMARK    4  A    between atoms: C_16  and  O_19
REMARK    5  A    between atoms: C_17  and  O_20
REMARK    6  A    between atoms: C_21  and  O_22
REMARK                            x       y       z     vdW  Elec       q    Type
REMARK                         _______ _______ _______ _____ _____    ______ ____
ROOT
ATOM      1  O   UNL     1       2.116  -1.758   0.004  0.00  0.00    +0.000 OA
ATOM      2  C   UNL     1       1.650  -0.632  -0.013  0.00  0.00    +0.000 A 
ATOM      3  C   UNL     1       2.492   0.595  -0.051  0.00  0.00    +0.000 A 
ATOM      4  C   UNL     1       0.204  -0.344  -0.005  0.00  0.00    +0.000 A 
ATOM      5  C   UNL     1       1.998   1.616  -0.074  0.00  0.00    +0.000 A 
ATOM      6  C   UNL     1      -0.134   0.992  -0.030  0.00  0.00    +0.000 A 
ATOM      7  C   UNL     1      -0.862  -1.323   0.016  0.00  0.00    +0.000 A 
ATOM      8  O   UNL     1       0.909   1.918  -0.069  0.00  0.00    +0.000 OA
ATOM      9  C   UNL     1      -1.535   1.377  -0.026  0.00  0.00    +0.000 A 
ATOM     10  C   UNL     1      -2.195  -0.941   0.011  0.00  0.00    +0.000 A 
ATOM     11  C   UNL     1      -2.542   0.402  -0.008  0.00  0.00    +0.000 A 
ENDROOT
BRANCH   5  12
ATOM     12  C   UNL     1       2.779   2.909  -0.112  0.00  0.00    +0.000 A 
ATOM     13  C   UNL     1       3.136   3.502  -1.339  0.00  0.00    +0.000 A 
ATOM     14  C   UNL     1       3.224   3.513   1.081  0.00  0.00    +0.000 A 
ATOM     15  C   UNL     1       3.913   4.665  -1.363  0.00  0.00    +0.000 A 
ATOM     16  C   UNL     1       3.999   4.675   1.042  0.00  0.00    +0.000 A 
ATOM     17  C   UNL     1       4.346   5.249  -0.178  0.00  0.00    +0.000 A 
BRANCH  15  18
ATOM     18  O   UNL     1       4.282   5.255  -2.538  0.00  0.00    +0.000 OA
ATOM     19  H   UNL     1       3.974   4.725  -3.283  0.00  0.00    +0.000 HD
ENDBRANCH  15  18
BRANCH  17  20
ATOM     20  O   UNL     1       5.121   6.375  -0.245  0.00  0.00    +0.000 OA
ATOM     21  H   UNL     1       5.269   6.586  -1.200  0.00  0.00    +0.000 HD
ENDBRANCH  17  20
ENDBRANCH   5  12
BRANCH   3  22
ATOM     22  O   UNL     1       3.813   0.274  -0.068  0.00  0.00    +0.000 OA
ATOM     23  H   UNL     1       3.871  -0.713  -0.036  0.00  0.00    +0.000 HD
ENDBRANCH   3  22
BRANCH   7  24
ATOM     24  O   UNL     1      -0.573  -2.648   0.031  0.00  0.00    +0.000 OA
ATOM     25  H   UNL     1       0.398  -2.713   0.025  0.00  0.00    +0.000 HD
ENDBRANCH   7  24
BRANCH  11  26
ATOM     26  O   UNL     1      -3.879   0.694  -0.007  0.00  0.00    +0.000 OA
ATOM     27  H   UNL     1      -4.071   1.641  -0.028  0.00  0.00    +0.000 HD
ENDBRANCH  11  26
TORSDOF 6
