REMARK  Name = opt88.pdb
REMARK  5 active torsions:
REMARK  status: ('A' for Active; 'I' for Inactive)
REMARK    1  A    between atoms: C_6  and  O_10
REMARK    2  A    between atoms: C_7  and  C_12
REMARK    3  A    between atoms: C_13  and  O_16
REMARK    4  A    between atoms: C_17  and  O_19
REMARK    5  A    between atoms: C_20  and  O_21
REMARK                            x       y       z     vdW  Elec       q    Type
REMARK                         _______ _______ _______ _____ _____    ______ ____
ROOT
ATOM      1  O   UNL     1      -2.509   1.548  -0.025  0.00  0.00    +0.000 OA
ATOM      2  C   UNL     1      -1.935   0.476   0.002  0.00  0.00    +0.000 A 
ATOM      3  C   UNL     1      -0.475   0.307   0.030  0.00  0.00    +0.000 A 
ATOM      4  C   UNL     1      -2.639  -0.825  -0.030  0.00  0.00    +0.000 A 
ATOM      5  C   UNL     1      -0.043  -1.001   0.014  0.00  0.00    +0.000 A 
ATOM      6  C   UNL     1       0.515   1.362   0.033  0.00  0.00    +0.000 A 
ATOM      7  C   UNL     1      -2.145  -1.842  -0.014  0.00  0.00    +0.000 A 
ATOM      8  O   UNL     1      -1.024  -1.994  -0.037  0.00  0.00    +0.000 OA
ATOM      9  C   UNL     1       1.377  -1.290   0.002  0.00  0.00    +0.000 A 
ATOM     10  C   UNL     1       1.872   1.072   0.012  0.00  0.00    +0.000 A 
ATOM     11  C   UNL     1       2.310  -0.246  -0.001  0.00  0.00    +0.000 A 
ENDROOT
BRANCH   7  12
ATOM     12  C   UNL     1      -2.997  -3.100  -0.080  0.00  0.00    +0.000 A 
ATOM     13  C   UNL     1      -4.320  -3.130   0.422  0.00  0.00    +0.000 A 
ATOM     14  C   UNL     1      -2.495  -4.272  -0.682  0.00  0.00    +0.000 A 
ATOM     15  C   UNL     1      -5.115  -4.268   0.281  0.00  0.00    +0.000 A 
ATOM     16  C   UNL     1      -3.296  -5.407  -0.812  0.00  0.00    +0.000 A 
ATOM     17  C   UNL     1      -4.607  -5.402  -0.343  0.00  0.00    +0.000 A 
BRANCH  15  18
ATOM     18  O   UNL     1      -6.406  -4.286   0.738  0.00  0.00    +0.000 OA
ATOM     19  H   UNL     1      -6.646  -3.436   1.145  0.00  0.00    +0.000 HD
ENDBRANCH  15  18
BRANCH  17  20
ATOM     20  O   UNL     1      -5.412  -6.492  -0.493  0.00  0.00    +0.000 OA
ATOM     21  H   UNL     1      -6.294  -6.257  -0.128  0.00  0.00    +0.000 HD
ENDBRANCH  17  20
ENDBRANCH   7  12
BRANCH   6  22
ATOM     22  O   UNL     1       0.127   2.665   0.036  0.00  0.00    +0.000 OA
ATOM     23  H   UNL     1      -0.849   2.669   0.018  0.00  0.00    +0.000 HD
ENDBRANCH   6  22
BRANCH  11  24
ATOM     24  O   UNL     1       3.657  -0.467  -0.017  0.00  0.00    +0.000 OA
ATOM     25  H   UNL     1       3.871  -1.410  -0.040  0.00  0.00    +0.000 HD
ENDBRANCH  11  24
TORSDOF 5
