REMARK  Name = opt81.pdb
REMARK  5 active torsions:
REMARK  status: ('A' for Active; 'I' for Inactive)
REMARK    1  A    between atoms: C_2  and  C_4
REMARK    2  A    between atoms: C_5  and  C_6
REMARK    3  A    between atoms: C_9  and  O_11
REMARK    4  A    between atoms: O_11  and  C_13
REMARK    5  A    between atoms: C_12  and  O_14
REMARK                            x       y       z     vdW  Elec       q    Type
REMARK                         _______ _______ _______ _____ _____    ______ ____
ROOT
ATOM      1  C   UNL     1       5.228  -1.299  -2.176  0.00  0.00    +0.000 A 
ATOM      2  C   UNL     1       4.845  -1.105  -3.505  0.00  0.00    +0.000 A 
ATOM      3  C   UNL     1       6.357  -2.067  -1.887  0.00  0.00    +0.000 A 
ATOM      4  C   UNL     1       5.581  -1.685  -4.544  0.00  0.00    +0.000 A 
ATOM      5  C   UNL     1       7.099  -2.640  -2.919  0.00  0.00    +0.000 A 
ATOM      6  C   UNL     1       6.708  -2.449  -4.243  0.00  0.00    +0.000 A 
ENDROOT
BRANCH   1   8
ATOM      7  C   UNL     1       3.127  -0.453  -1.041  0.00  0.00    +0.000 C 
ATOM      8  C   UNL     1       4.450  -0.675  -1.086  0.00  0.00    +0.000 C 
BRANCH   7  10
ATOM      9  O   UNL     1       1.174   0.343  -0.132  0.00  0.00    +0.000 OA
ATOM     10  C   UNL     1       2.367   0.206   0.041  0.00  0.00    +0.000 C 
ATOM     11  O   UNL     1       2.978   0.583   1.021  0.00  0.00    +0.000 OA
ENDBRANCH   7  10
ENDBRANCH   1   8
BRANCH   4  12
ATOM     12  O   UNL     1       5.240  -1.532  -5.883  0.00  0.00    +0.000 OA
ATOM     13  C   UNL     1       4.063  -0.800  -6.301  0.00  0.00    +0.000 C 
ENDBRANCH   4  12
BRANCH   6  14
ATOM     14  O   UNL     1       7.417  -2.997  -5.267  0.00  0.00    +0.000 OA
ATOM     15  H   UNL     1       6.945  -2.719  -6.080  0.00  0.00    +0.000 HD
ENDBRANCH   6  14
TORSDOF 4
