REMARK  Name = opt86.pdb
REMARK  2 active torsions:
REMARK  status: ('A' for Active; 'I' for Inactive)
REMARK    1  A    between atoms: N_3  and  C_6
REMARK    2  A    between atoms: N_12  and  C_13
REMARK                            x       y       z     vdW  Elec       q    Type
REMARK                         _______ _______ _______ _____ _____    ______ ____
ROOT
ATOM      1  O   UNL     1       3.146  -0.648  -0.017  0.00  0.00    +0.000 OA
ATOM      2  C   UNL     1       1.945  -0.468  -0.011  0.00  0.00    +0.000 A 
ATOM      3  N   UNL     1       1.368   0.767  -0.014  0.00  0.00    +0.000 N 
ATOM      4  N   UNL     1       1.100  -1.522  -0.001  0.00  0.00    +0.000 N 
ATOM      5  C   UNL     1      -0.009   0.963  -0.008  0.00  0.00    +0.000 A 
ATOM      6  C   UNL     1       2.189   1.989  -0.024  0.00  0.00    +0.000 C 
ATOM      7  C   UNL     1      -0.250  -1.508   0.008  0.00  0.00    +0.000 A 
ATOM      8  N   UNL     1      -0.963   1.536  -0.007  0.00  0.00    +0.000 NA
ATOM      9  C   UNL     1      -0.821  -0.147   0.004  0.00  0.00    +0.000 A 
ATOM     10  O   UNL     1      -0.881  -2.546   0.017  0.00  0.00    +0.000 OA
ATOM     11  C   UNL     1      -2.040   1.816  -0.001  0.00  0.00    +0.000 A 
ATOM     12  N   UNL     1      -2.047   0.447   0.012  0.00  0.00    +0.000 N 
ATOM     13  C   UNL     1      -3.304  -0.309   0.039  0.00  0.00    +0.000 C 
ATOM     14  H   UNL     1       1.531  -2.433   0.001  0.00  0.00    +0.000 HD
ENDROOT
TORSDOF 0
