REMARK  Name = opt84.pdb
REMARK  12 active torsions:
REMARK  status: ('A' for Active; 'I' for Inactive)
REMARK    1  A    between atoms: C_2  and  C_3
REMARK    2  A    between atoms: C_2  and  C_4
REMARK    3  A    between atoms: C_4  and  C_6
REMARK    4  A    between atoms: C_5  and  C_7
REMARK    5  A    between atoms: C_6  and  C_9
REMARK    6  A    between atoms: C_12  and  C_15
REMARK    7  A    between atoms: C_13  and  O_16
REMARK    8  A    between atoms: O_16  and  C_20
REMARK    9  A    between atoms: C_17  and  O_21
REMARK   10  A    between atoms: C_22  and  O_24
REMARK   11  A    between atoms: O_24  and  C_26
REMARK   12  A    between atoms: C_25  and  O_27
REMARK                            x       y       z     vdW  Elec       q    Type
REMARK                         _______ _______ _______ _____ _____    ______ ____
ROOT
ATOM      1  C   UNL     1       3.188   1.029   0.722  0.00  0.00    +0.000 C 
ENDROOT
BRANCH   1   2
ATOM      2  C   UNL     1       4.665   0.723   0.861  0.00  0.00    +0.000 C 
ATOM      3  O   UNL     1       5.135   0.344   1.916  0.00  0.00    +0.000 OA
BRANCH   2   4
ATOM      4  C   UNL     1       5.503   0.915  -0.345  0.00  0.00    +0.000 C 
ATOM      5  C   UNL     1       6.828   0.717  -0.432  0.00  0.00    +0.000 C 
BRANCH   5   6
ATOM      6  C   UNL     1       7.708   0.888  -1.606  0.00  0.00    +0.000 A 
ATOM      7  C   UNL     1       7.298   0.473  -2.876  0.00  0.00    +0.000 A 
ATOM      8  C   UNL     1       8.978   1.440  -1.435  0.00  0.00    +0.000 A 
ATOM      9  C   UNL     1       8.157   0.611  -3.972  0.00  0.00    +0.000 A 
ATOM     10  C   UNL     1       9.838   1.572  -2.522  0.00  0.00    +0.000 A 
ATOM     11  C   UNL     1       9.428   1.157  -3.786  0.00  0.00    +0.000 A 
BRANCH  11  12
ATOM     12  O   UNL     1      10.263   1.272  -4.853  0.00  0.00    +0.000 OA
ATOM     13  H   UNL     1       9.779   0.898  -5.617  0.00  0.00    +0.000 HD
ENDBRANCH  11  12
BRANCH   9  14
ATOM     14  O   UNL     1       7.808   0.221  -5.258  0.00  0.00    +0.000 OA
ATOM     15  C   UNL     1       6.505  -0.308  -5.601  0.00  0.00    +0.000 C 
ENDBRANCH   9  14
ENDBRANCH   5   6
ENDBRANCH   2   4
ENDBRANCH   1   2
BRANCH   1  17
ATOM     16  O   UNL     1       2.684  -0.270  -1.222  0.00  0.00    +0.000 OA
ATOM     17  C   UNL     1       2.439  -0.040  -0.052  0.00  0.00    +0.000 C 
BRANCH  17  18
ATOM     18  C   UNL     1       1.330  -0.718   0.655  0.00  0.00    +0.000 C 
ATOM     19  C   UNL     1       0.476  -1.618   0.146  0.00  0.00    +0.000 C 
BRANCH  19  20
ATOM     20  C   UNL     1      -0.642  -2.254   0.863  0.00  0.00    +0.000 A 
ATOM     21  C   UNL     1      -0.438  -3.442   1.566  0.00  0.00    +0.000 A 
ATOM     22  C   UNL     1      -1.892  -1.636   0.883  0.00  0.00    +0.000 A 
ATOM     23  C   UNL     1      -1.485  -4.007   2.303  0.00  0.00    +0.000 A 
ATOM     24  C   UNL     1      -2.937  -2.197   1.612  0.00  0.00    +0.000 A 
ATOM     25  C   UNL     1      -2.729  -3.375   2.323  0.00  0.00    +0.000 A 
BRANCH  23  26
ATOM     26  O   UNL     1      -1.342  -5.174   3.041  0.00  0.00    +0.000 OA
ATOM     27  C   UNL     1      -0.113  -5.935   3.091  0.00  0.00    +0.000 C 
ENDBRANCH  23  26
BRANCH  25  28
ATOM     28  O   UNL     1      -3.730  -3.921   3.062  0.00  0.00    +0.000 OA
ATOM     29  H   UNL     1      -3.338  -4.708   3.492  0.00  0.00    +0.000 HD
ENDBRANCH  25  28
ENDBRANCH  19  20
ENDBRANCH  17  18
ENDBRANCH   1  17
TORSDOF 10
