MODEL 1
REMARK VINA RESULT:    -4.777      0.000      0.000
REMARK INTER + INTRA:          -4.777
REMARK INTER:                  -4.777
REMARK INTRA:                   0.000
REMARK UNBOUND:                 0.000
REMARK  Name = opt83.pdb
REMARK  2 active torsions:
REMARK  status: ('A' for Active; 'I' for Inactive)
REMARK    1  A    between atoms: N_3  and  C_6
REMARK    2  A    between atoms: N_4  and  C_8
REMARK                            x       y       z     vdW  Elec       q    Type
REMARK                         _______ _______ _______ _____ _____    ______ ____
ROOT
ATOM      1  O   UNL A   1      13.313  16.360  42.246  0.00  0.00    +0.000 OA
ATOM      2  C   UNL A   1      13.166  15.268  42.761  0.00  0.00    +0.000 C 
ATOM      3  N   UNL A   1      12.028  14.947  43.459  0.00  0.00    +0.000 N 
ATOM      4  N   UNL A   1      14.183  14.352  42.757  0.00  0.00    +0.000 N 
ATOM      5  C   UNL A   1      11.760  13.733  44.024  0.00  0.00    +0.000 C 
ATOM      6  C   UNL A   1      10.988  15.992  43.649  0.00  0.00    +0.000 C 
ATOM      7  C   UNL A   1      14.029  13.084  43.310  0.00  0.00    +0.000 C 
ATOM      8  C   UNL A   1      15.509  14.705  42.193  0.00  0.00    +0.000 C 
ATOM      9  O   UNL A   1      10.793  13.532  44.732  0.00  0.00    +0.000 OA
ATOM     10  C   UNL A   1      12.653  12.587  43.614  0.00  0.00    +0.000 C 
ATOM     11  N   UNL A   1      15.069  12.257  43.645  0.00  0.00    +0.000 NA
ATOM     12  N   UNL A   1      13.087  11.381  44.342  0.00  0.00    +0.000 NA
ATOM     13  C   UNL A   1      14.416  11.231  44.275  0.00  0.00    +0.000 C 
ENDROOT
TORSDOF 0
ENDMDL
MODEL 2
REMARK VINA RESULT:    -4.600      1.785      1.785
REMARK INTER + INTRA:          -4.600
REMARK INTER:                  -4.600
REMARK INTRA:                   0.000
REMARK UNBOUND:                 0.000
REMARK  Name = opt83.pdb
REMARK  2 active torsions:
REMARK  status: ('A' for Active; 'I' for Inactive)
REMARK    1  A    between atoms: N_3  and  C_6
REMARK    2  A    between atoms: N_4  and  C_8
REMARK                            x       y       z     vdW  Elec       q    Type
REMARK                         _______ _______ _______ _____ _____    ______ ____
ROOT
ATOM      1  O   UNL A   1      15.509  16.475  44.526  0.00  0.00    +0.000 OA
ATOM      2  C   UNL A   1      14.805  15.489  44.425  0.00  0.00    +0.000 C 
ATOM      3  N   UNL A   1      13.440  15.562  44.549  0.00  0.00    +0.000 N 
ATOM      4  N   UNL A   1      15.361  14.245  44.293  0.00  0.00    +0.000 N 
ATOM      5  C   UNL A   1      12.573  14.517  44.402  0.00  0.00    +0.000 C 
ATOM      6  C   UNL A   1      12.822  16.870  44.891  0.00  0.00    +0.000 C 
ATOM      7  C   UNL A   1      14.578  13.104  44.143  0.00  0.00    +0.000 C 
ATOM      8  C   UNL A   1      16.834  14.071  44.350  0.00  0.00    +0.000 C 
ATOM      9  O   UNL A   1      11.384  14.605  44.637  0.00  0.00    +0.000 OA
ATOM     10  C   UNL A   1      13.134  13.257  43.788  0.00  0.00    +0.000 C 
ATOM     11  N   UNL A   1      15.029  11.826  44.345  0.00  0.00    +0.000 NA
ATOM     12  N   UNL A   1      12.782  11.839  43.979  0.00  0.00    +0.000 NA
ATOM     13  C   UNL A   1      13.873  11.102  44.229  0.00  0.00    +0.000 C 
ENDROOT
TORSDOF 0
ENDMDL
MODEL 3
REMARK VINA RESULT:    -4.526      1.803      2.476
REMARK INTER + INTRA:          -4.526
REMARK INTER:                  -4.526
REMARK INTRA:                   0.000
REMARK UNBOUND:                 0.000
REMARK  Name = opt83.pdb
REMARK  2 active torsions:
REMARK  status: ('A' for Active; 'I' for Inactive)
REMARK    1  A    between atoms: N_3  and  C_6
REMARK    2  A    between atoms: N_4  and  C_8
REMARK                            x       y       z     vdW  Elec       q    Type
REMARK                         _______ _______ _______ _____ _____    ______ ____
ROOT
ATOM      1  O   UNL A   1      10.796  15.453  43.683  0.00  0.00    +0.000 OA
ATOM      2  C   UNL A   1      11.723  14.673  43.781  0.00  0.00    +0.000 C 
ATOM      3  N   UNL A   1      11.549  13.321  43.615  0.00  0.00    +0.000 N 
ATOM      4  N   UNL A   1      12.962  15.107  44.172  0.00  0.00    +0.000 N 
ATOM      5  C   UNL A   1      12.540  12.383  43.658  0.00  0.00    +0.000 C 
ATOM      6  C   UNL A   1      10.176  12.800  43.385  0.00  0.00    +0.000 C 
ATOM      7  C   UNL A   1      14.047  14.240  44.260  0.00  0.00    +0.000 C 
ATOM      8  C   UNL A   1      13.174  16.523  44.559  0.00  0.00    +0.000 C 
ATOM      9  O   UNL A   1      12.322  11.188  43.623  0.00  0.00    +0.000 OA
ATOM     10  C   UNL A   1      13.959  12.897  43.609  0.00  0.00    +0.000 C 
ATOM     11  N   UNL A   1      15.199  14.513  44.951  0.00  0.00    +0.000 NA
ATOM     12  N   UNL A   1      15.208  12.369  44.185  0.00  0.00    +0.000 NA
ATOM     13  C   UNL A   1      15.865  13.320  44.863  0.00  0.00    +0.000 C 
ENDROOT
TORSDOF 0
ENDMDL
MODEL 4
REMARK VINA RESULT:    -4.427      2.203      2.746
REMARK INTER + INTRA:          -4.427
REMARK INTER:                  -4.427
REMARK INTRA:                   0.000
REMARK UNBOUND:                 0.000
REMARK  Name = opt83.pdb
REMARK  2 active torsions:
REMARK  status: ('A' for Active; 'I' for Inactive)
REMARK    1  A    between atoms: N_3  and  C_6
REMARK    2  A    between atoms: N_4  and  C_8
REMARK                            x       y       z     vdW  Elec       q    Type
REMARK                         _______ _______ _______ _____ _____    ______ ____
ROOT
ATOM      1  O   UNL A   1       9.673  15.959  43.409  0.00  0.00    +0.000 OA
ATOM      2  C   UNL A   1      10.287  14.909  43.451  0.00  0.00    +0.000 C 
ATOM      3  N   UNL A   1       9.715  13.723  43.063  0.00  0.00    +0.000 N 
ATOM      4  N   UNL A   1      11.542  14.857  43.995  0.00  0.00    +0.000 N 
ATOM      5  C   UNL A   1      10.344  12.512  43.032  0.00  0.00    +0.000 C 
ATOM      6  C   UNL A   1       8.286  13.719  42.655  0.00  0.00    +0.000 C 
ATOM      7  C   UNL A   1      12.278  13.676  44.026  0.00  0.00    +0.000 C 
ATOM      8  C   UNL A   1      12.144  16.063  44.614  0.00  0.00    +0.000 C 
ATOM      9  O   UNL A   1       9.765  11.471  42.794  0.00  0.00    +0.000 OA
ATOM     10  C   UNL A   1      11.848  12.530  43.168  0.00  0.00    +0.000 C 
ATOM     11  N   UNL A   1      13.364  13.464  44.835  0.00  0.00    +0.000 NA
ATOM     12  N   UNL A   1      12.786  11.551  43.745  0.00  0.00    +0.000 NA
ATOM     13  C   UNL A   1      13.623  12.139  44.610  0.00  0.00    +0.000 C 
ENDROOT
TORSDOF 0
ENDMDL
MODEL 5
REMARK VINA RESULT:    -4.375      2.033      3.230
REMARK INTER + INTRA:          -4.375
REMARK INTER:                  -4.375
REMARK INTRA:                   0.000
REMARK UNBOUND:                 0.000
REMARK  Name = opt83.pdb
REMARK  2 active torsions:
REMARK  status: ('A' for Active; 'I' for Inactive)
REMARK    1  A    between atoms: N_3  and  C_6
REMARK    2  A    between atoms: N_4  and  C_8
REMARK                            x       y       z     vdW  Elec       q    Type
REMARK                         _______ _______ _______ _____ _____    ______ ____
ROOT
ATOM      1  O   UNL A   1      12.484  16.936  44.564  0.00  0.00    +0.000 OA
ATOM      2  C   UNL A   1      13.124  15.903  44.507  0.00  0.00    +0.000 C 
ATOM      3  N   UNL A   1      14.483  15.907  44.306  0.00  0.00    +0.000 N 
ATOM      4  N   UNL A   1      12.493  14.689  44.532  0.00  0.00    +0.000 N 
ATOM      5  C   UNL A   1      15.283  14.801  44.279  0.00  0.00    +0.000 C 
ATOM      6  C   UNL A   1      15.168  17.206  44.076  0.00  0.00    +0.000 C 
ATOM      7  C   UNL A   1      13.205  13.493  44.502  0.00  0.00    +0.000 C 
ATOM      8  C   UNL A   1      11.012  14.612  44.549  0.00  0.00    +0.000 C 
ATOM      9  O   UNL A   1      16.461  14.844  43.981  0.00  0.00    +0.000 OA
ATOM     10  C   UNL A   1      14.673  13.514  44.781  0.00  0.00    +0.000 C 
ATOM     11  N   UNL A   1      12.658  12.277  44.186  0.00  0.00    +0.000 NA
ATOM     12  N   UNL A   1      14.917  12.110  44.408  0.00  0.00    +0.000 NA
ATOM     13  C   UNL A   1      13.767  11.475  44.146  0.00  0.00    +0.000 C 
ENDROOT
TORSDOF 0
ENDMDL
MODEL 6
REMARK VINA RESULT:    -4.369      2.166      3.196
REMARK INTER + INTRA:          -4.369
REMARK INTER:                  -4.369
REMARK INTRA:                   0.000
REMARK UNBOUND:                 0.000
REMARK  Name = opt83.pdb
REMARK  2 active torsions:
REMARK  status: ('A' for Active; 'I' for Inactive)
REMARK    1  A    between atoms: N_3  and  C_6
REMARK    2  A    between atoms: N_4  and  C_8
REMARK                            x       y       z     vdW  Elec       q    Type
REMARK                         _______ _______ _______ _____ _____    ______ ____
ROOT
ATOM      1  O   UNL A   1      13.291  16.864  44.583  0.00  0.00    +0.000 OA
ATOM      2  C   UNL A   1      13.470  15.661  44.567  0.00  0.00    +0.000 C 
ATOM      3  N   UNL A   1      14.717  15.116  44.749  0.00  0.00    +0.000 N 
ATOM      4  N   UNL A   1      12.447  14.808  44.255  0.00  0.00    +0.000 N 
ATOM      5  C   UNL A   1      14.999  13.780  44.795  0.00  0.00    +0.000 C 
ATOM      6  C   UNL A   1      15.882  16.027  44.892  0.00  0.00    +0.000 C 
ATOM      7  C   UNL A   1      12.617  13.426  44.262  0.00  0.00    +0.000 C 
ATOM      8  C   UNL A   1      11.121  15.339  43.855  0.00  0.00    +0.000 C 
ATOM      9  O   UNL A   1      16.133  13.345  44.840  0.00  0.00    +0.000 OA
ATOM     10  C   UNL A   1      13.821  12.847  44.933  0.00  0.00    +0.000 C 
ATOM     11  N   UNL A   1      11.770  12.541  43.648  0.00  0.00    +0.000 NA
ATOM     12  N   UNL A   1      13.608  11.469  44.457  0.00  0.00    +0.000 NA
ATOM     13  C   UNL A   1      12.442  11.358  43.807  0.00  0.00    +0.000 C 
ENDROOT
TORSDOF 0
ENDMDL
MODEL 7
REMARK VINA RESULT:    -4.334      1.895      2.916
REMARK INTER + INTRA:          -4.334
REMARK INTER:                  -4.334
REMARK INTRA:                   0.000
REMARK UNBOUND:                 0.000
REMARK  Name = opt83.pdb
REMARK  2 active torsions:
REMARK  status: ('A' for Active; 'I' for Inactive)
REMARK    1  A    between atoms: N_3  and  C_6
REMARK    2  A    between atoms: N_4  and  C_8
REMARK                            x       y       z     vdW  Elec       q    Type
REMARK                         _______ _______ _______ _____ _____    ______ ____
ROOT
ATOM      1  O   UNL A   1       9.396  13.072  42.870  0.00  0.00    +0.000 OA
ATOM      2  C   UNL A   1      10.475  13.301  43.383  0.00  0.00    +0.000 C 
ATOM      3  N   UNL A   1      10.783  14.538  43.893  0.00  0.00    +0.000 N 
ATOM      4  N   UNL A   1      11.467  12.358  43.370  0.00  0.00    +0.000 N 
ATOM      5  C   UNL A   1      11.946  14.867  44.527  0.00  0.00    +0.000 C 
ATOM      6  C   UNL A   1       9.796  15.639  43.742  0.00  0.00    +0.000 C 
ATOM      7  C   UNL A   1      12.699  12.583  43.978  0.00  0.00    +0.000 C 
ATOM      8  C   UNL A   1      11.271  11.070  42.662  0.00  0.00    +0.000 C 
ATOM      9  O   UNL A   1      12.222  16.004  44.857  0.00  0.00    +0.000 OA
ATOM     10  C   UNL A   1      12.837  13.719  44.940  0.00  0.00    +0.000 C 
ATOM     11  N   UNL A   1      13.831  11.854  43.723  0.00  0.00    +0.000 NA
ATOM     12  N   UNL A   1      14.301  13.623  45.077  0.00  0.00    +0.000 NA
ATOM     13  C   UNL A   1      14.775  12.549  44.431  0.00  0.00    +0.000 C 
ENDROOT
TORSDOF 0
ENDMDL
MODEL 8
REMARK VINA RESULT:    -4.319      2.030      4.417
REMARK INTER + INTRA:          -4.319
REMARK INTER:                  -4.319
REMARK INTRA:                   0.000
REMARK UNBOUND:                 0.000
REMARK  Name = opt83.pdb
REMARK  2 active torsions:
REMARK  status: ('A' for Active; 'I' for Inactive)
REMARK    1  A    between atoms: N_3  and  C_6
REMARK    2  A    between atoms: N_4  and  C_8
REMARK                            x       y       z     vdW  Elec       q    Type
REMARK                         _______ _______ _______ _____ _____    ______ ____
ROOT
ATOM      1  O   UNL A   1      11.860  11.471  43.515  0.00  0.00    +0.000 OA
ATOM      2  C   UNL A   1      12.376  12.528  43.822  0.00  0.00    +0.000 C 
ATOM      3  N   UNL A   1      13.692  12.604  44.205  0.00  0.00    +0.000 N 
ATOM      4  N   UNL A   1      11.628  13.672  43.902  0.00  0.00    +0.000 N 
ATOM      5  C   UNL A   1      14.363  13.753  44.517  0.00  0.00    +0.000 C 
ATOM      6  C   UNL A   1      14.478  11.347  44.319  0.00  0.00    +0.000 C 
ATOM      7  C   UNL A   1      12.200  14.900  44.219  0.00  0.00    +0.000 C 
ATOM      8  C   UNL A   1      10.160  13.625  43.693  0.00  0.00    +0.000 C 
ATOM      9  O   UNL A   1      15.492  13.759  44.964  0.00  0.00    +0.000 OA
ATOM     10  C   UNL A   1      13.686  15.050  44.145  0.00  0.00    +0.000 C 
ATOM     11  N   UNL A   1      11.493  15.994  44.645  0.00  0.00    +0.000 NA
ATOM     12  N   UNL A   1      13.732  16.386  44.766  0.00  0.00    +0.000 NA
ATOM     13  C   UNL A   1      12.498  16.868  44.964  0.00  0.00    +0.000 C 
ENDROOT
TORSDOF 0
ENDMDL
MODEL 9
REMARK VINA RESULT:    -4.299      2.048      3.173
REMARK INTER + INTRA:          -4.299
REMARK INTER:                  -4.299
REMARK INTRA:                   0.000
REMARK UNBOUND:                 0.000
REMARK  Name = opt83.pdb
REMARK  2 active torsions:
REMARK  status: ('A' for Active; 'I' for Inactive)
REMARK    1  A    between atoms: N_3  and  C_6
REMARK    2  A    between atoms: N_4  and  C_8
REMARK                            x       y       z     vdW  Elec       q    Type
REMARK                         _______ _______ _______ _____ _____    ______ ____
ROOT
ATOM      1  O   UNL A   1      14.327  15.904  44.336  0.00  0.00    +0.000 OA
ATOM      2  C   UNL A   1      13.655  14.938  44.025  0.00  0.00    +0.000 C 
ATOM      3  N   UNL A   1      13.942  13.680  44.494  0.00  0.00    +0.000 N 
ATOM      4  N   UNL A   1      12.651  15.055  43.103  0.00  0.00    +0.000 N 
ATOM      5  C   UNL A   1      13.214  12.554  44.237  0.00  0.00    +0.000 C 
ATOM      6  C   UNL A   1      15.148  13.490  45.341  0.00  0.00    +0.000 C 
ATOM      7  C   UNL A   1      11.847  13.974  42.755  0.00  0.00    +0.000 C 
ATOM      8  C   UNL A   1      12.415  16.344  42.408  0.00  0.00    +0.000 C 
ATOM      9  O   UNL A   1      13.572  11.443  44.577  0.00  0.00    +0.000 OA
ATOM     10  C   UNL A   1      11.849  12.758  43.625  0.00  0.00    +0.000 C 
ATOM     11  N   UNL A   1      11.071  13.920  41.627  0.00  0.00    +0.000 NA
ATOM     12  N   UNL A   1      11.056  11.918  42.710  0.00  0.00    +0.000 NA
ATOM     13  C   UNL A   1      10.616  12.629  41.663  0.00  0.00    +0.000 C 
ENDROOT
TORSDOF 0
ENDMDL
MODEL 10
REMARK VINA RESULT:    -4.283      1.973      2.758
REMARK INTER + INTRA:          -4.283
REMARK INTER:                  -4.283
REMARK INTRA:                   0.000
REMARK UNBOUND:                 0.000
REMARK  Name = opt83.pdb
REMARK  2 active torsions:
REMARK  status: ('A' for Active; 'I' for Inactive)
REMARK    1  A    between atoms: N_3  and  C_6
REMARK    2  A    between atoms: N_4  and  C_8
REMARK                            x       y       z     vdW  Elec       q    Type
REMARK                         _______ _______ _______ _____ _____    ______ ____
ROOT
ATOM      1  O   UNL A   1      11.435  14.210  41.812  0.00  0.00    +0.000 OA
ATOM      2  C   UNL A   1      12.350  13.862  42.533  0.00  0.00    +0.000 C 
ATOM      3  N   UNL A   1      12.360  12.631  43.142  0.00  0.00    +0.000 N 
ATOM      4  N   UNL A   1      13.356  14.733  42.853  0.00  0.00    +0.000 N 
ATOM      5  C   UNL A   1      13.366  12.142  43.924  0.00  0.00    +0.000 C 
ATOM      6  C   UNL A   1      11.183  11.740  42.972  0.00  0.00    +0.000 C 
ATOM      7  C   UNL A   1      14.431  14.349  43.649  0.00  0.00    +0.000 C 
ATOM      8  C   UNL A   1      13.306  16.141  42.389  0.00  0.00    +0.000 C 
ATOM      9  O   UNL A   1      13.279  11.096  44.538  0.00  0.00    +0.000 OA
ATOM     10  C   UNL A   1      14.675  12.894  43.887  0.00  0.00    +0.000 C 
ATOM     11  N   UNL A   1      15.275  15.225  44.281  0.00  0.00    +0.000 NA
ATOM     12  N   UNL A   1      15.719  13.082  44.909  0.00  0.00    +0.000 NA
ATOM     13  C   UNL A   1      16.039  14.377  45.037  0.00  0.00    +0.000 C 
ENDROOT
TORSDOF 0
ENDMDL
MODEL 11
REMARK VINA RESULT:    -4.252      2.105      4.232
REMARK INTER + INTRA:          -4.252
REMARK INTER:                  -4.252
REMARK INTRA:                   0.000
REMARK UNBOUND:                 0.000
REMARK  Name = opt83.pdb
REMARK  2 active torsions:
REMARK  status: ('A' for Active; 'I' for Inactive)
REMARK    1  A    between atoms: N_3  and  C_6
REMARK    2  A    between atoms: N_4  and  C_8
REMARK                            x       y       z     vdW  Elec       q    Type
REMARK                         _______ _______ _______ _____ _____    ______ ____
ROOT
ATOM      1  O   UNL A   1      13.473  11.094  44.401  0.00  0.00    +0.000 OA
ATOM      2  C   UNL A   1      13.086  12.122  43.879  0.00  0.00    +0.000 C 
ATOM      3  N   UNL A   1      13.634  13.342  44.194  0.00  0.00    +0.000 N 
ATOM      4  N   UNL A   1      12.010  12.114  43.033  0.00  0.00    +0.000 N 
ATOM      5  C   UNL A   1      13.296  14.535  43.622  0.00  0.00    +0.000 C 
ATOM      6  C   UNL A   1      14.671  13.406  45.257  0.00  0.00    +0.000 C 
ATOM      7  C   UNL A   1      11.568  13.270  42.397  0.00  0.00    +0.000 C 
ATOM      8  C   UNL A   1      11.247  10.862  42.802  0.00  0.00    +0.000 C 
ATOM      9  O   UNL A   1      13.722  15.602  44.016  0.00  0.00    +0.000 OA
ATOM     10  C   UNL A   1      12.463  14.467  42.364  0.00  0.00    +0.000 C 
ATOM     11  N   UNL A   1      10.331  13.412  41.826  0.00  0.00    +0.000 NA
ATOM     12  N   UNL A   1      11.457  15.390  41.811  0.00  0.00    +0.000 NA
ATOM     13  C   UNL A   1      10.331  14.739  41.488  0.00  0.00    +0.000 C 
ENDROOT
TORSDOF 0
ENDMDL
MODEL 12
REMARK VINA RESULT:    -4.215      2.114      3.432
REMARK INTER + INTRA:          -4.215
REMARK INTER:                  -4.215
REMARK INTRA:                   0.000
REMARK UNBOUND:                 0.000
REMARK  Name = opt83.pdb
REMARK  2 active torsions:
REMARK  status: ('A' for Active; 'I' for Inactive)
REMARK    1  A    between atoms: N_3  and  C_6
REMARK    2  A    between atoms: N_4  and  C_8
REMARK                            x       y       z     vdW  Elec       q    Type
REMARK                         _______ _______ _______ _____ _____    ______ ____
ROOT
ATOM      1  O   UNL A   1      14.697  16.712  44.641  0.00  0.00    +0.000 OA
ATOM      2  C   UNL A   1      14.210  15.620  44.422  0.00  0.00    +0.000 C 
ATOM      3  N   UNL A   1      14.987  14.537  44.090  0.00  0.00    +0.000 N 
ATOM      4  N   UNL A   1      12.852  15.455  44.390  0.00  0.00    +0.000 N 
ATOM      5  C   UNL A   1      14.530  13.268  43.877  0.00  0.00    +0.000 C 
ATOM      6  C   UNL A   1      16.451  14.732  43.923  0.00  0.00    +0.000 C 
ATOM      7  C   UNL A   1      12.269  14.210  44.174  0.00  0.00    +0.000 C 
ATOM      8  C   UNL A   1      11.950  16.623  44.544  0.00  0.00    +0.000 C 
ATOM      9  O   UNL A   1      15.238  12.369  43.471  0.00  0.00    +0.000 OA
ATOM     10  C   UNL A   1      13.111  12.982  44.309  0.00  0.00    +0.000 C 
ATOM     11  N   UNL A   1      10.966  14.022  43.795  0.00  0.00    +0.000 NA
ATOM     12  N   UNL A   1      12.101  12.049  43.779  0.00  0.00    +0.000 NA
ATOM     13  C   UNL A   1      10.934  12.672  43.570  0.00  0.00    +0.000 C 
ENDROOT
TORSDOF 0
ENDMDL
MODEL 13
REMARK VINA RESULT:    -4.163      1.679      3.296
REMARK INTER + INTRA:          -4.163
REMARK INTER:                  -4.163
REMARK INTRA:                   0.000
REMARK UNBOUND:                 0.000
REMARK  Name = opt83.pdb
REMARK  2 active torsions:
REMARK  status: ('A' for Active; 'I' for Inactive)
REMARK    1  A    between atoms: N_3  and  C_6
REMARK    2  A    between atoms: N_4  and  C_8
REMARK                            x       y       z     vdW  Elec       q    Type
REMARK                         _______ _______ _______ _____ _____    ______ ____
ROOT
ATOM      1  O   UNL A   1      11.612  13.379  44.641  0.00  0.00    +0.000 OA
ATOM      2  C   UNL A   1      12.682  13.926  44.453  0.00  0.00    +0.000 C 
ATOM      3  N   UNL A   1      12.793  15.293  44.388  0.00  0.00    +0.000 N 
ATOM      4  N   UNL A   1      13.805  13.189  44.190  0.00  0.00    +0.000 N 
ATOM      5  C   UNL A   1      13.957  15.988  44.231  0.00  0.00    +0.000 C 
ATOM      6  C   UNL A   1      11.557  16.114  44.473  0.00  0.00    +0.000 C 
ATOM      7  C   UNL A   1      15.048  13.787  44.004  0.00  0.00    +0.000 C 
ATOM      8  C   UNL A   1      13.720  11.714  44.050  0.00  0.00    +0.000 C 
ATOM      9  O   UNL A   1      13.992  17.191  44.060  0.00  0.00    +0.000 OA
ATOM     10  C   UNL A   1      15.237  15.210  44.422  0.00  0.00    +0.000 C 
ATOM     11  N   UNL A   1      16.121  13.173  43.414  0.00  0.00    +0.000 NA
ATOM     12  N   UNL A   1      16.572  15.367  43.817  0.00  0.00    +0.000 NA
ATOM     13  C   UNL A   1      17.020  14.202  43.331  0.00  0.00    +0.000 C 
ENDROOT
TORSDOF 0
ENDMDL
MODEL 14
REMARK VINA RESULT:    -4.154      2.053      3.532
REMARK INTER + INTRA:          -4.154
REMARK INTER:                  -4.154
REMARK INTRA:                   0.000
REMARK UNBOUND:                 0.000
REMARK  Name = opt83.pdb
REMARK  2 active torsions:
REMARK  status: ('A' for Active; 'I' for Inactive)
REMARK    1  A    between atoms: N_3  and  C_6
REMARK    2  A    between atoms: N_4  and  C_8
REMARK                            x       y       z     vdW  Elec       q    Type
REMARK                         _______ _______ _______ _____ _____    ______ ____
ROOT
ATOM      1  O   UNL A   1      14.030  11.484  43.739  0.00  0.00    +0.000 OA
ATOM      2  C   UNL A   1      13.439  12.528  43.943  0.00  0.00    +0.000 C 
ATOM      3  N   UNL A   1      12.107  12.673  43.645  0.00  0.00    +0.000 N 
ATOM      4  N   UNL A   1      14.114  13.637  44.377  0.00  0.00    +0.000 N 
ATOM      5  C   UNL A   1      11.357  13.788  43.885  0.00  0.00    +0.000 C 
ATOM      6  C   UNL A   1      11.395  11.546  42.987  0.00  0.00    +0.000 C 
ATOM      7  C   UNL A   1      13.457  14.834  44.648  0.00  0.00    +0.000 C 
ATOM      8  C   UNL A   1      15.589  13.607  44.531  0.00  0.00    +0.000 C 
ATOM      9  O   UNL A   1      10.213  13.913  43.497  0.00  0.00    +0.000 OA
ATOM     10  C   UNL A   1      11.969  14.829  44.793  0.00  0.00    +0.000 C 
ATOM     11  N   UNL A   1      14.080  16.050  44.751  0.00  0.00    +0.000 NA
ATOM     12  N   UNL A   1      11.818  16.294  44.837  0.00  0.00    +0.000 NA
ATOM     13  C   UNL A   1      13.012  16.900  44.866  0.00  0.00    +0.000 C 
ENDROOT
TORSDOF 0
ENDMDL
MODEL 15
REMARK VINA RESULT:    -4.078      2.021      3.045
REMARK INTER + INTRA:          -4.078
REMARK INTER:                  -4.078
REMARK INTRA:                   0.000
REMARK UNBOUND:                 0.000
REMARK  Name = opt83.pdb
REMARK  2 active torsions:
REMARK  status: ('A' for Active; 'I' for Inactive)
REMARK    1  A    between atoms: N_3  and  C_6
REMARK    2  A    between atoms: N_4  and  C_8
REMARK                            x       y       z     vdW  Elec       q    Type
REMARK                         _______ _______ _______ _____ _____    ______ ____
ROOT
ATOM      1  O   UNL A   1      15.218  13.840  44.883  0.00  0.00    +0.000 OA
ATOM      2  C   UNL A   1      14.128  13.821  44.345  0.00  0.00    +0.000 C 
ATOM      3  N   UNL A   1      13.388  14.964  44.174  0.00  0.00    +0.000 N 
ATOM      4  N   UNL A   1      13.549  12.634  43.986  0.00  0.00    +0.000 N 
ATOM      5  C   UNL A   1      12.181  15.040  43.538  0.00  0.00    +0.000 C 
ATOM      6  C   UNL A   1      13.905  16.241  44.732  0.00  0.00    +0.000 C 
ATOM      7  C   UNL A   1      12.317  12.586  43.339  0.00  0.00    +0.000 C 
ATOM      8  C   UNL A   1      14.205  11.346  44.320  0.00  0.00    +0.000 C 
ATOM      9  O   UNL A   1      11.508  16.052  43.514  0.00  0.00    +0.000 OA
ATOM     10  C   UNL A   1      11.770  13.835  42.727  0.00  0.00    +0.000 C 
ATOM     11  N   UNL A   1      11.531  11.466  43.256  0.00  0.00    +0.000 NA
ATOM     12  N   UNL A   1      10.442  13.278  42.414  0.00  0.00    +0.000 NA
ATOM     13  C   UNL A   1      10.396  11.966  42.677  0.00  0.00    +0.000 C 
ENDROOT
TORSDOF 0
ENDMDL
MODEL 16
REMARK VINA RESULT:    -4.049      2.163      3.534
REMARK INTER + INTRA:          -4.049
REMARK INTER:                  -4.049
REMARK INTRA:                   0.000
REMARK UNBOUND:                 0.000
REMARK  Name = opt83.pdb
REMARK  2 active torsions:
REMARK  status: ('A' for Active; 'I' for Inactive)
REMARK    1  A    between atoms: N_3  and  C_6
REMARK    2  A    between atoms: N_4  and  C_8
REMARK                            x       y       z     vdW  Elec       q    Type
REMARK                         _______ _______ _______ _____ _____    ______ ____
ROOT
ATOM      1  O   UNL A   1      13.825  15.491  44.354  0.00  0.00    +0.000 OA
ATOM      2  C   UNL A   1      13.058  14.634  43.959  0.00  0.00    +0.000 C 
ATOM      3  N   UNL A   1      13.311  13.298  44.147  0.00  0.00    +0.000 N 
ATOM      4  N   UNL A   1      11.963  14.970  43.210  0.00  0.00    +0.000 N 
ATOM      5  C   UNL A   1      12.484  12.275  43.781  0.00  0.00    +0.000 C 
ATOM      6  C   UNL A   1      14.593  12.896  44.783  0.00  0.00    +0.000 C 
ATOM      7  C   UNL A   1      11.052  14.012  42.774  0.00  0.00    +0.000 C 
ATOM      8  C   UNL A   1      11.735  16.378  42.802  0.00  0.00    +0.000 C 
ATOM      9  O   UNL A   1      12.803  11.105  43.862  0.00  0.00    +0.000 OA
ATOM     10  C   UNL A   1      11.074  12.653  43.397  0.00  0.00    +0.000 C 
ATOM     11  N   UNL A   1      10.148  14.210  41.764  0.00  0.00    +0.000 NA
ATOM     12  N   UNL A   1      10.124  12.040  42.451  0.00  0.00    +0.000 NA
ATOM     13  C   UNL A   1       9.614  12.958  41.619  0.00  0.00    +0.000 C 
ENDROOT
TORSDOF 0
ENDMDL
MODEL 17
REMARK VINA RESULT:    -3.917      3.712      5.289
REMARK INTER + INTRA:          -3.917
REMARK INTER:                  -3.917
REMARK INTRA:                   0.000
REMARK UNBOUND:                 0.000
REMARK  Name = opt83.pdb
REMARK  2 active torsions:
REMARK  status: ('A' for Active; 'I' for Inactive)
REMARK    1  A    between atoms: N_3  and  C_6
REMARK    2  A    between atoms: N_4  and  C_8
REMARK                            x       y       z     vdW  Elec       q    Type
REMARK                         _______ _______ _______ _____ _____    ______ ____
ROOT
ATOM      1  O   UNL A   1      10.582  15.583  43.514  0.00  0.00    +0.000 OA
ATOM      2  C   UNL A   1      10.021  14.516  43.350  0.00  0.00    +0.000 C 
ATOM      3  N   UNL A   1      10.697  13.407  42.903  0.00  0.00    +0.000 N 
ATOM      4  N   UNL A   1       8.665  14.410  43.501  0.00  0.00    +0.000 N 
ATOM      5  C   UNL A   1      10.159  12.163  42.740  0.00  0.00    +0.000 C 
ATOM      6  C   UNL A   1      12.132  13.543  42.541  0.00  0.00    +0.000 C 
ATOM      7  C   UNL A   1       8.004  13.195  43.352  0.00  0.00    +0.000 C 
ATOM      8  C   UNL A   1       7.846  15.612  43.790  0.00  0.00    +0.000 C 
ATOM      9  O   UNL A   1      10.765  11.241  42.230  0.00  0.00    +0.000 OA
ATOM     10  C   UNL A   1       8.800  11.930  43.356  0.00  0.00    +0.000 C 
ATOM     11  N   UNL A   1       6.654  13.070  43.152  0.00  0.00    +0.000 NA
ATOM     12  N   UNL A   1       7.687  11.051  42.957  0.00  0.00    +0.000 NA
ATOM     13  C   UNL A   1       6.531  11.726  42.916  0.00  0.00    +0.000 C 
ENDROOT
TORSDOF 0
ENDMDL
MODEL 18
REMARK VINA RESULT:    -3.877      2.640      4.666
REMARK INTER + INTRA:          -3.877
REMARK INTER:                  -3.877
REMARK INTRA:                   0.000
REMARK UNBOUND:                 0.000
REMARK  Name = opt83.pdb
REMARK  2 active torsions:
REMARK  status: ('A' for Active; 'I' for Inactive)
REMARK    1  A    between atoms: N_3  and  C_6
REMARK    2  A    between atoms: N_4  and  C_8
REMARK                            x       y       z     vdW  Elec       q    Type
REMARK                         _______ _______ _______ _____ _____    ______ ____
ROOT
ATOM      1  O   UNL A   1      15.598  12.397  43.950  0.00  0.00    +0.000 OA
ATOM      2  C   UNL A   1      15.164  13.513  44.160  0.00  0.00    +0.000 C 
ATOM      3  N   UNL A   1      15.985  14.549  44.530  0.00  0.00    +0.000 N 
ATOM      4  N   UNL A   1      13.816  13.752  44.142  0.00  0.00    +0.000 N 
ATOM      5  C   UNL A   1      15.590  15.840  44.736  0.00  0.00    +0.000 C 
ATOM      6  C   UNL A   1      17.429  14.272  44.752  0.00  0.00    +0.000 C 
ATOM      7  C   UNL A   1      13.295  15.026  44.346  0.00  0.00    +0.000 C 
ATOM      8  C   UNL A   1      12.858  12.636  43.943  0.00  0.00    +0.000 C 
ATOM      9  O   UNL A   1      16.331  16.696  45.177  0.00  0.00    +0.000 OA
ATOM     10  C   UNL A   1      14.207  16.206  44.254  0.00  0.00    +0.000 C 
ATOM     11  N   UNL A   1      11.990  15.283  44.676  0.00  0.00    +0.000 NA
ATOM     12  N   UNL A   1      13.230  17.190  44.753  0.00  0.00    +0.000 NA
ATOM     13  C   UNL A   1      12.023  16.631  44.912  0.00  0.00    +0.000 C 
ENDROOT
TORSDOF 0
ENDMDL
MODEL 19
REMARK VINA RESULT:    -3.756      3.425      4.598
REMARK INTER + INTRA:          -3.756
REMARK INTER:                  -3.756
REMARK INTRA:                   0.000
REMARK UNBOUND:                 0.000
REMARK  Name = opt83.pdb
REMARK  2 active torsions:
REMARK  status: ('A' for Active; 'I' for Inactive)
REMARK    1  A    between atoms: N_3  and  C_6
REMARK    2  A    between atoms: N_4  and  C_8
REMARK                            x       y       z     vdW  Elec       q    Type
REMARK                         _______ _______ _______ _____ _____    ______ ____
ROOT
ATOM      1  O   UNL A   1       7.458  15.862  43.982  0.00  0.00    +0.000 OA
ATOM      2  C   UNL A   1       8.028  14.815  43.740  0.00  0.00    +0.000 C 
ATOM      3  N   UNL A   1       7.356  13.618  43.712  0.00  0.00    +0.000 N 
ATOM      4  N   UNL A   1       9.388  14.778  43.595  0.00  0.00    +0.000 N 
ATOM      5  C   UNL A   1       7.905  12.407  43.402  0.00  0.00    +0.000 C 
ATOM      6  C   UNL A   1       5.911  13.601  44.062  0.00  0.00    +0.000 C 
ATOM      7  C   UNL A   1      10.061  13.599  43.286  0.00  0.00    +0.000 C 
ATOM      8  C   UNL A   1      10.200  16.002  43.808  0.00  0.00    +0.000 C 
ATOM      9  O   UNL A   1       7.298  11.359  43.505  0.00  0.00    +0.000 OA
ATOM     10  C   UNL A   1       9.280  12.430  42.778  0.00  0.00    +0.000 C 
ATOM     11  N   UNL A   1      11.407  13.411  43.457  0.00  0.00    +0.000 NA
ATOM     12  N   UNL A   1      10.394  11.468  42.839  0.00  0.00    +0.000 NA
ATOM     13  C   UNL A   1      11.541  12.080  43.165  0.00  0.00    +0.000 C 
ENDROOT
TORSDOF 0
ENDMDL
