@<TRIPOS>MOLECULE
Compound 1
 25 25 0 0 0
SMALL
GASTEIGER

@<TRIPOS>ATOM
      1 O          -2.3321    0.9438    0.0880 O.3     1  UNL1       -0.5065
      2 C          -1.1438    0.2769    0.0426 C.ar    1  UNL1        0.1205
      3 C          -1.0917   -1.1266   -0.0253 C.ar    1  UNL1       -0.0034
      4 C           0.0308    1.0289    0.0540 C.ar    1  UNL1       -0.0170
      5 C           0.1650   -1.7433   -0.0742 C.ar    1  UNL1       -0.0546
      6 C          -2.3772   -1.9625   -0.1053 C.3     1  UNL1       -0.0181
      7 C           1.2755    0.4025    0.0113 C.ar    1  UNL1       -0.0470
      8 C           1.3354   -0.9880   -0.0461 C.ar    1  UNL1       -0.0583
      9 C          -2.7947   -2.1777   -1.5747 C.3     1  UNL1       -0.0585
     10 C          -2.2931   -3.3243    0.6233 C.3     1  UNL1       -0.0585
     11 C           2.5568    1.2172    0.0199 C.3     1  UNL1       -0.0396
     12 H          -3.0643    0.3070    0.1706 H       1  UNL1        0.2921
     13 H          -0.0303    2.1146    0.0930 H       1  UNL1        0.0657
     14 H           0.2519   -2.8228   -0.1446 H       1  UNL1        0.0622
     15 H          -3.1830   -1.4161    0.3874 H       1  UNL1        0.0345
     16 H           2.2995   -1.4901   -0.0807 H       1  UNL1        0.0620
     17 H          -2.0242   -2.7275   -2.1206 H       1  UNL1        0.0235
     18 H          -2.9473   -1.2172   -2.0725 H       1  UNL1        0.0235
     19 H          -3.7286   -2.7417   -1.6331 H       1  UNL1        0.0235
     20 H          -1.5977   -4.0047    0.1277 H       1  UNL1        0.0235
     21 H          -3.2736   -3.8068    0.6359 H       1  UNL1        0.0235
     22 H          -1.9714   -3.1870    1.6586 H       1  UNL1        0.0235
     23 H           2.3469    2.2889   -0.0075 H       1  UNL1        0.0278
     24 H           3.1708    0.9691   -0.8488 H       1  UNL1        0.0278
     25 H           3.1357    1.0054    0.9221 H       1  UNL1        0.0278
@<TRIPOS>BOND
     1     1     2    1
     2     2     3   ar
     3     2     4   ar
     4     3     5   ar
     5     3     6    1
     6     4     7   ar
     7     5     8   ar
     8     6     9    1
     9     6    10    1
    10     7    11    1
    11     7     8   ar
    12     1    12    1
    13     4    13    1
    14     5    14    1
    15     6    15    1
    16     8    16    1
    17     9    17    1
    18     9    18    1
    19     9    19    1
    20    10    20    1
    21    10    21    1
    22    10    22    1
    23    11    23    1
    24    11    24    1
    25    11    25    1
@<TRIPOS>MOLECULE
Compound 2
 19 20 0 0 0
SMALL
GASTEIGER

@<TRIPOS>ATOM
      1 O           0.9483   -0.1201   -0.0659 O.2     1  UNL1       -0.2832
      2 C           2.1645   -0.0886   -0.0671 C.2     1  UNL1        0.2331
      3 C           2.8928    1.2852   -0.0684 C.2     1  UNL1        0.2293
      4 C           2.9976   -1.3283   -0.0664 C.ar    1  UNL1        0.0361
      5 O           2.2690    2.3288   -0.0677 O.2     1  UNL1       -0.2837
      6 C           4.3562    1.1970   -0.0701 C.2     1  UNL1        0.0310
      7 C           4.3985   -1.2496   -0.0682 C.ar    1  UNL1        0.0275
      8 C           2.3652   -2.5767   -0.0636 C.ar    1  UNL1       -0.0501
      9 C           5.0915    0.0302   -0.0706 C.2     1  UNL1        0.1284
     10 C           5.1369   -2.4431   -0.0671 C.ar    1  UNL1       -0.0504
     11 C           3.1127   -3.7495   -0.0621 C.ar    1  UNL1       -0.0610
     12 O           6.4401    0.0255   -0.0723 O.2     1  UNL1       -0.5060
     13 C           4.5004   -3.6815   -0.0639 C.ar    1  UNL1       -0.0611
     14 H           4.8538    2.1614   -0.0710 H       1  UNL1        0.0694
     15 H           1.2795   -2.6430   -0.0622 H       1  UNL1        0.0625
     16 H           6.2241   -2.4257   -0.0684 H       1  UNL1        0.0625
     17 H           2.6130   -4.7154   -0.0593 H       1  UNL1        0.0618
     18 H           6.7465    0.9507   -0.0711 H       1  UNL1        0.2922
     19 H           5.0899   -4.5954   -0.0627 H       1  UNL1        0.0618
@<TRIPOS>BOND
     1     1     2    2
     2     2     3    1
     3     2     4    1
     4     3     5    2
     5     3     6    1
     6     4     7   ar
     7     4     8   ar
     8     6     9    2
     9     7    10   ar
    10     8    11   ar
    11     9    12    1
    12    10    13   ar
    13     7     9    1
    14    11    13   ar
    15     6    14    1
    16     8    15    1
    17    10    16    1
    18    11    17    1
    19    12    18    1
    20    13    19    1
