
##########                                Name:          Compound 1
##########                DOCK_Rotatable_Bonds:                   2
##########                         Heavy_Atoms:                  11
##########                    Molecular_Weight:              150.22
##########                       Formal_Charge:         -9.9998e-05
##########                     HBond_Acceptors:                   1
##########                        HBond_Donors:                   1
##########                    Continuous_Score:          -24.432583
##########               Continuous_vdw_energy:          -23.034668
##########                Continuous_es_energy:           -1.397915
##########           Internal_energy_repulsive:            3.371012

@<TRIPOS>MOLECULE
Compound 1
 25 25 1 0 0
SMALL
GASTEIGER


@<TRIPOS>ATOM
      1 O          21.4947    6.7617   38.3502 O.3     1  UNL1       -0.5065
      2 C          22.3434    7.7226   38.8143 C.ar    1  UNL1        0.1205
      3 C          23.3975    8.2147   38.0246 C.ar    1  UNL1       -0.0034
      4 C          22.1315    8.2185   40.1005 C.ar    1  UNL1       -0.0170
      5 C          24.2265    9.2056   38.5657 C.ar    1  UNL1       -0.0546
      6 C          23.6011    7.7251   36.5836 C.3     1  UNL1       -0.0181
      7 C          22.9678    9.2003   40.6299 C.ar    1  UNL1       -0.0470
      8 C          24.0204    9.6858   39.8572 C.ar    1  UNL1       -0.0583
      9 C          22.9029    8.6709   35.5847 C.3     1  UNL1       -0.0585
     10 C          25.0830    7.5364   36.1826 C.3     1  UNL1       -0.0585
     11 C          22.7389    9.7457   42.0282 C.3     1  UNL1       -0.0396
     12 H          20.8336    7.1638   37.7589 H       1  UNL1        0.2921
     13 H          21.3021    7.8348   40.6912 H       1  UNL1        0.0657
     14 H          25.0414    9.6264   37.9853 H       1  UNL1        0.0622
     15 H          23.1417    6.7410   36.4786 H       1  UNL1        0.0345
     16 H          24.6802   10.4524   40.2569 H       1  UNL1        0.0620
     17 H          23.3268    9.6764   35.6411 H       1  UNL1        0.0235
     18 H          21.8348    8.7370   35.8047 H       1  UNL1        0.0235
     19 H          23.0161    8.3050   34.5615 H       1  UNL1        0.0235
     20 H          25.6116    8.4903   36.1313 H       1  UNL1        0.0235
     21 H          25.1508    7.0687   35.1972 H       1  UNL1        0.0235
     22 H          25.5955    6.8895   36.8989 H       1  UNL1        0.0235
     23 H          21.8374    9.3229   42.4774 H       1  UNL1        0.0278
     24 H          22.6264   10.8319   41.9990 H       1  UNL1        0.0278
     25 H          23.5872    9.5050   42.6735 H       1  UNL1        0.0278
@<TRIPOS>BOND
     1     1     2    1
     2     2     3   ar
     3     2     4   ar
     4     3     5   ar
     5     3     6    1
     6     4     7   ar
     7     5     8   ar
     8     6     9    1
     9     6    10    1
    10     7    11    1
    11     7     8   ar
    12     1    12    1
    13     4    13    1
    14     5    14    1
    15     6    15    1
    16     8    16    1
    17     9    17    1
    18     9    18    1
    19     9    19    1
    20    10    20    1
    21    10    21    1
    22    10    22    1
    23    11    23    1
    24    11    24    1
    25    11    25    1
@<TRIPOS>SUBSTRUCTURE
     1 UNL1        1 TEMP              0 ****  ****    0 ROOT


##########                                Name:          Compound 1
##########                DOCK_Rotatable_Bonds:                   2
##########                         Heavy_Atoms:                  11
##########                    Molecular_Weight:              150.22
##########                       Formal_Charge:         -9.9998e-05
##########                     HBond_Acceptors:                   1
##########                        HBond_Donors:                   1
##########                    Continuous_Score:          -24.020203
##########               Continuous_vdw_energy:          -23.301935
##########                Continuous_es_energy:           -0.718267
##########           Internal_energy_repulsive:            3.436621

@<TRIPOS>MOLECULE
Compound 1
 25 25 1 0 0
SMALL
GASTEIGER


@<TRIPOS>ATOM
      1 O          21.7804    6.6265   38.6559 O.3     1  UNL1       -0.5065
      2 C          22.5095    7.7127   39.0397 C.ar    1  UNL1        0.1205
      3 C          23.4524    8.3048   38.1809 C.ar    1  UNL1       -0.0034
      4 C          22.2872    8.2345   40.3139 C.ar    1  UNL1       -0.0170
      5 C          24.1613    9.4217   38.6412 C.ar    1  UNL1       -0.0546
      6 C          23.6592    7.7809   36.7525 C.3     1  UNL1       -0.0181
      7 C          23.0039    9.3429   40.7625 C.ar    1  UNL1       -0.0470
      8 C          23.9469    9.9290   39.9210 C.ar    1  UNL1       -0.0583
      9 C          22.7446    8.5300   35.7614 C.3     1  UNL1       -0.0585
     10 C          25.1254    7.8388   36.2631 C.3     1  UNL1       -0.0585
     11 C          22.7628    9.9166   42.1474 C.3     1  UNL1       -0.0396
     12 H          22.1078    6.2955   37.8005 H       1  UNL1        0.2921
     13 H          21.5435    7.7709   40.9588 H       1  UNL1        0.0657
     14 H          24.8859    9.9206   38.0057 H       1  UNL1        0.0622
     15 H          23.3815    6.7262   36.7212 H       1  UNL1        0.0345
     16 H          24.5128   10.7946   40.2574 H       1  UNL1        0.0620
     17 H          22.9808    9.5968   35.7455 H       1  UNL1        0.0235
     18 H          21.6966    8.4158   36.0484 H       1  UNL1        0.0235
     19 H          22.8638    8.1346   34.7499 H       1  UNL1        0.0235
     20 H          25.4677    8.8677   36.1352 H       1  UNL1        0.0235
     21 H          25.2208    7.3372   35.2968 H       1  UNL1        0.0235
     22 H          25.7871    7.3346   36.9716 H       1  UNL1        0.0235
     23 H          21.9469    9.3980   42.6562 H       1  UNL1        0.0278
     24 H          22.5025   10.9754   42.0802 H       1  UNL1        0.0278
     25 H          23.6626    9.8218   42.7600 H       1  UNL1        0.0278
@<TRIPOS>BOND
     1     1     2    1
     2     2     3   ar
     3     2     4   ar
     4     3     5   ar
     5     3     6    1
     6     4     7   ar
     7     5     8   ar
     8     6     9    1
     9     6    10    1
    10     7    11    1
    11     7     8   ar
    12     1    12    1
    13     4    13    1
    14     5    14    1
    15     6    15    1
    16     8    16    1
    17     9    17    1
    18     9    18    1
    19     9    19    1
    20    10    20    1
    21    10    21    1
    22    10    22    1
    23    11    23    1
    24    11    24    1
    25    11    25    1
@<TRIPOS>SUBSTRUCTURE
     1 UNL1        1 TEMP              0 ****  ****    0 ROOT


##########                                Name:          Compound 1
##########                DOCK_Rotatable_Bonds:                   2
##########                         Heavy_Atoms:                  11
##########                    Molecular_Weight:              150.22
##########                       Formal_Charge:         -9.9998e-05
##########                     HBond_Acceptors:                   1
##########                        HBond_Donors:                   1
##########                    Continuous_Score:          -23.964083
##########               Continuous_vdw_energy:          -23.143068
##########                Continuous_es_energy:           -0.821014
##########           Internal_energy_repulsive:            3.302904

@<TRIPOS>MOLECULE
Compound 1
 25 25 1 0 0
SMALL
GASTEIGER


@<TRIPOS>ATOM
      1 O          21.7158    6.6833   38.4562 O.3     1  UNL1       -0.5065
      2 C          22.4892    7.7209   38.8851 C.ar    1  UNL1        0.1205
      3 C          23.4802    8.2865   38.0635 C.ar    1  UNL1       -0.0034
      4 C          22.2635    8.2202   40.1678 C.ar    1  UNL1       -0.0170
      5 C          24.2332    9.3538   38.5694 C.ar    1  UNL1       -0.0546
      6 C          23.6939    7.7900   36.6264 C.3     1  UNL1       -0.0181
      7 C          23.0243    9.2788   40.6618 C.ar    1  UNL1       -0.0470
      8 C          24.0147    9.8380   39.8574 C.ar    1  UNL1       -0.0583
      9 C          23.0129    8.7376   35.6173 C.3     1  UNL1       -0.0585
     10 C          25.1780    7.5881   36.2404 C.3     1  UNL1       -0.0585
     11 C          22.7798    9.8280   42.0560 C.3     1  UNL1       -0.0396
     12 H          22.2234    6.1276   37.8381 H       1  UNL1        0.2921
     13 H          21.4827    7.7782   40.7834 H       1  UNL1        0.0657
     14 H          24.9966    9.8317   37.9637 H       1  UNL1        0.0622
     15 H          23.2277    6.8091   36.5205 H       1  UNL1        0.0345
     16 H          24.6152   10.6648   40.2294 H       1  UNL1        0.0620
     17 H          23.4441    9.7400   35.6742 H       1  UNL1        0.0235
     18 H          21.9432    8.8129   35.8269 H       1  UNL1        0.0235
     19 H          23.1329    8.3671   34.5966 H       1  UNL1        0.0235
     20 H          25.7148    8.5377   36.1909 H       1  UNL1        0.0235
     21 H          25.2515    7.1163   35.2574 H       1  UNL1        0.0235
     22 H          25.6785    6.9399   36.9640 H       1  UNL1        0.0235
     23 H          21.9274    9.3384   42.5326 H       1  UNL1        0.0278
     24 H          22.5744   10.9000   42.0117 H       1  UNL1        0.0278
     25 H          23.6592    9.6720   42.6855 H       1  UNL1        0.0278
@<TRIPOS>BOND
     1     1     2    1
     2     2     3   ar
     3     2     4   ar
     4     3     5   ar
     5     3     6    1
     6     4     7   ar
     7     5     8   ar
     8     6     9    1
     9     6    10    1
    10     7    11    1
    11     7     8   ar
    12     1    12    1
    13     4    13    1
    14     5    14    1
    15     6    15    1
    16     8    16    1
    17     9    17    1
    18     9    18    1
    19     9    19    1
    20    10    20    1
    21    10    21    1
    22    10    22    1
    23    11    23    1
    24    11    24    1
    25    11    25    1
@<TRIPOS>SUBSTRUCTURE
     1 UNL1        1 TEMP              0 ****  ****    0 ROOT


##########                                Name:          Compound 2
##########                DOCK_Rotatable_Bonds:                   1
##########                         Heavy_Atoms:                  13
##########                    Molecular_Weight:             174.156
##########                       Formal_Charge:         0.000100043
##########                     HBond_Acceptors:                   3
##########                        HBond_Donors:                   1
##########                    Continuous_Score:          -24.940033
##########               Continuous_vdw_energy:          -23.433142
##########                Continuous_es_energy:           -1.506892
##########           Internal_energy_repulsive:            1.826846

@<TRIPOS>MOLECULE
Compound 2
 19 20 1 0 0
SMALL
GASTEIGER


@<TRIPOS>ATOM
      1 O          21.6060    6.6610   38.5194 O.2     1  UNL1       -0.2832
      2 C          22.2453    7.6960   38.4989 C.2     1  UNL1        0.2331
      3 C          22.9037    8.1606   37.1691 C.2     1  UNL1        0.2293
      4 C          22.4258    8.5498   39.7110 C.ar    1  UNL1        0.0361
      5 O          22.7909    7.5088   36.1490 O.2     1  UNL1       -0.2837
      6 C          23.6475    9.4202   37.2671 C.2     1  UNL1        0.0310
      7 C          23.1711    9.7368   39.6463 C.ar    1  UNL1        0.0275
      8 C          21.8415    8.1536   40.9193 C.ar    1  UNL1       -0.0501
      9 C          23.7930   10.1816   38.4078 C.2     1  UNL1        0.1284
     10 C          23.3114   10.5046   40.8126 C.ar    1  UNL1       -0.0504
     11 C          21.9904    8.9270   42.0655 C.ar    1  UNL1       -0.0610
     12 O          24.4941   11.3335   38.4237 O.2     1  UNL1       -0.5060
     13 C          22.7267   10.1040   42.0110 C.ar    1  UNL1       -0.0611
     14 H          24.1025    9.7347   36.3334 H       1  UNL1        0.0694
     15 H          21.2628    7.2341   40.9747 H       1  UNL1        0.0625
     16 H          23.8809   11.4310   40.8048 H       1  UNL1        0.0625
     17 H          21.5324    8.6118   43.0002 H       1  UNL1        0.0618
     18 H          24.4848   11.6814   39.3340 H       1  UNL1        0.2922
     19 H          22.8463   10.7127   42.9043 H       1  UNL1        0.0618
@<TRIPOS>BOND
     1     1     2    2
     2     2     3    1
     3     2     4    1
     4     3     5    2
     5     3     6    1
     6     4     7   ar
     7     4     8   ar
     8     6     9    2
     9     7    10   ar
    10     8    11   ar
    11     9    12    1
    12    10    13   ar
    13     7     9    1
    14    11    13   ar
    15     6    14    1
    16     8    15    1
    17    10    16    1
    18    11    17    1
    19    12    18    1
    20    13    19    1
@<TRIPOS>SUBSTRUCTURE
     1 UNL1        1 TEMP              0 ****  ****    0 ROOT


##########                                Name:          Compound 2
##########                DOCK_Rotatable_Bonds:                   1
##########                         Heavy_Atoms:                  13
##########                    Molecular_Weight:             174.156
##########                       Formal_Charge:         0.000100043
##########                     HBond_Acceptors:                   3
##########                        HBond_Donors:                   1
##########                    Continuous_Score:          -25.098757
##########               Continuous_vdw_energy:          -23.721815
##########                Continuous_es_energy:           -1.376942
##########           Internal_energy_repulsive:            1.826869

@<TRIPOS>MOLECULE
Compound 2
 19 20 1 0 0
SMALL
GASTEIGER


@<TRIPOS>ATOM
      1 O          21.6858    6.6703   38.5824 O.2     1  UNL1       -0.2832
      2 C          22.3208    7.7077   38.5575 C.2     1  UNL1        0.2331
      3 C          22.9904    8.1615   37.2296 C.2     1  UNL1        0.2293
      4 C          22.4856    8.5747   39.7624 C.ar    1  UNL1        0.0361
      5 O          22.8906    7.4986   36.2152 O.2     1  UNL1       -0.2837
      6 C          23.7278    9.4252   37.3218 C.2     1  UNL1        0.0310
      7 C          23.2264    9.7644   39.6928 C.ar    1  UNL1        0.0275
      8 C          21.8909    8.1885   40.9689 C.ar    1  UNL1       -0.0501
      9 C          23.8587   10.1989   38.4560 C.2     1  UNL1        0.1284
     10 C          23.3519   10.5448   40.8524 C.ar    1  UNL1       -0.0504
     11 C          22.0252    8.9743   42.1085 C.ar    1  UNL1       -0.0610
     12 O          24.5547   11.3540   38.4669 O.2     1  UNL1       -0.5060
     13 C          22.7569   10.1539   42.0491 C.ar    1  UNL1       -0.0611
     14 H          24.1909    9.7320   36.3896 H       1  UNL1        0.0694
     15 H          21.3157    7.2672   41.0280 H       1  UNL1        0.0625
     16 H          23.9174   11.4734   40.8407 H       1  UNL1        0.0625
     17 H          21.5592    8.6669   43.0418 H       1  UNL1        0.0618
     18 H          24.5376   11.7096   39.3742 H       1  UNL1        0.2922
     19 H          22.8651   10.7723   42.9371 H       1  UNL1        0.0618
@<TRIPOS>BOND
     1     1     2    2
     2     2     3    1
     3     2     4    1
     4     3     5    2
     5     3     6    1
     6     4     7   ar
     7     4     8   ar
     8     6     9    2
     9     7    10   ar
    10     8    11   ar
    11     9    12    1
    12    10    13   ar
    13     7     9    1
    14    11    13   ar
    15     6    14    1
    16     8    15    1
    17    10    16    1
    18    11    17    1
    19    12    18    1
    20    13    19    1
@<TRIPOS>SUBSTRUCTURE
     1 UNL1        1 TEMP              0 ****  ****    0 ROOT


##########                                Name:          Compound 2
##########                DOCK_Rotatable_Bonds:                   1
##########                         Heavy_Atoms:                  13
##########                    Molecular_Weight:             174.156
##########                       Formal_Charge:         0.000100043
##########                     HBond_Acceptors:                   3
##########                        HBond_Donors:                   1
##########                    Continuous_Score:          -24.803267
##########               Continuous_vdw_energy:          -23.636349
##########                Continuous_es_energy:           -1.166918
##########           Internal_energy_repulsive:            1.827155

@<TRIPOS>MOLECULE
Compound 2
 19 20 1 0 0
SMALL
GASTEIGER


@<TRIPOS>ATOM
      1 O          21.6639    6.5961   38.6480 O.2     1  UNL1       -0.2832
      2 C          22.2981    7.6328   38.5915 C.2     1  UNL1        0.2331
      3 C          22.9476    8.0583   37.2444 C.2     1  UNL1        0.2293
      4 C          22.4805    8.5254   39.7752 C.ar    1  UNL1        0.0361
      5 O          22.8330    7.3739   36.2460 O.2     1  UNL1       -0.2837
      6 C          23.6858    9.3238   37.2987 C.2     1  UNL1        0.0310
      7 C          23.2197    9.7133   39.6691 C.ar    1  UNL1        0.0275
      8 C          21.9040    8.1648   40.9983 C.ar    1  UNL1       -0.0501
      9 C          23.8332   10.1215   38.4141 C.2     1  UNL1        0.1284
     10 C          23.3621   10.5182   40.8099 C.ar    1  UNL1       -0.0504
     11 C          22.0548    8.9748   42.1188 C.ar    1  UNL1       -0.0610
     12 O          24.5288   11.2765   38.3900 O.2     1  UNL1       -0.5060
     13 C          22.7851   10.1529   42.0234 C.ar    1  UNL1       -0.0611
     14 H          24.1348    9.6107   36.3533 H       1  UNL1        0.0694
     15 H          21.3301    7.2449   41.0856 H       1  UNL1        0.0625
     16 H          23.9270   11.4464   40.7699 H       1  UNL1        0.0625
     17 H          21.6030    8.6871   43.0652 H       1  UNL1        0.0618
     18 H          24.8606   11.4119   37.4837 H       1  UNL1        0.2922
     19 H          22.9063   10.7900   42.8963 H       1  UNL1        0.0618
@<TRIPOS>BOND
     1     1     2    2
     2     2     3    1
     3     2     4    1
     4     3     5    2
     5     3     6    1
     6     4     7   ar
     7     4     8   ar
     8     6     9    2
     9     7    10   ar
    10     8    11   ar
    11     9    12    1
    12    10    13   ar
    13     7     9    1
    14    11    13   ar
    15     6    14    1
    16     8    15    1
    17    10    16    1
    18    11    17    1
    19    12    18    1
    20    13    19    1
@<TRIPOS>SUBSTRUCTURE
     1 UNL1        1 TEMP              0 ****  ****    0 ROOT

