MODEL 1
REMARK VINA RESULT:    -7.402      0.000      0.000
REMARK INTER + INTRA:         -11.535
REMARK INTER:                 -10.863
REMARK INTRA:                  -0.671
REMARK UNBOUND:                -0.671
REMARK  Name = opt55.pdb
REMARK  12 active torsions:
REMARK  status: ('A' for Active; 'I' for Inactive)
REMARK    1  A    between atoms: C_3  and  O_5
REMARK    2  A    between atoms: C_6  and  C_10
REMARK    3  A    between atoms: C_8  and  O_12
REMARK    4  A    between atoms: C_16  and  O_19
REMARK    5  A    between atoms: C_17  and  O_20
REMARK    6  A    between atoms: C_21  and  O_22
REMARK    7  A    between atoms: O_22  and  C_23
REMARK    8  A    between atoms: C_25  and  O_27
REMARK    9  A    between atoms: C_26  and  C_30
REMARK   10  A    between atoms: C_28  and  O_31
REMARK   11  A    between atoms: C_29  and  O_32
REMARK   12  A    between atoms: C_30  and  O_33
REMARK                            x       y       z     vdW  Elec       q    Type
REMARK                         _______ _______ _______ _____ _____    ______ ____
ROOT
ATOM      1  C   UNL     1      13.419  13.234  42.984  0.00  0.00    +0.000 A 
ATOM      2  C   UNL     1      13.015  12.335  41.980  0.00  0.00    +0.000 A 
ATOM      3  C   UNL     1      12.439  14.026  43.611  0.00  0.00    +0.000 A 
ATOM      4  C   UNL     1      11.675  12.259  41.592  0.00  0.00    +0.000 A 
ATOM      5  C   UNL     1      11.104  13.954  43.208  0.00  0.00    +0.000 A 
ATOM      6  C   UNL     1      10.719  13.090  42.179  0.00  0.00    +0.000 A 
ENDROOT
BRANCH   1  11
ATOM      7  O   UNL     1      17.099  13.861  45.816  0.00  0.00    +0.000 OA
ATOM      8  C   UNL     1      16.650  13.807  44.685  0.00  0.00    +0.000 A 
ATOM      9  C   UNL     1      15.237  13.451  44.390  0.00  0.00    +0.000 A 
ATOM     10  C   UNL     1      17.446  14.079  43.474  0.00  0.00    +0.000 A 
ATOM     11  C   UNL     1      14.882  13.415  43.313  0.00  0.00    +0.000 A 
ATOM     12  C   UNL     1      16.772  13.941  42.278  0.00  0.00    +0.000 A 
ATOM     13  C   UNL     1      18.840  14.463  43.437  0.00  0.00    +0.000 A 
ATOM     14  O   UNL     1      15.430  13.564  42.335  0.00  0.00    +0.000 OA
ATOM     15  C   UNL     1      17.473  14.183  41.029  0.00  0.00    +0.000 A 
ATOM     16  C   UNL     1      19.494  14.699  42.237  0.00  0.00    +0.000 A 
ATOM     17  C   UNL     1      18.822  14.562  41.032  0.00  0.00    +0.000 A 
BRANCH  13  18
ATOM     18  O   UNL     1      19.540  14.607  44.592  0.00  0.00    +0.000 OA
ATOM     19  H   UNL     1      20.010  15.457  44.521  0.00  0.00    +0.000 HD
ENDBRANCH  13  18
BRANCH  17  20
ATOM     20  O   UNL     1      19.536  14.815  39.893  0.00  0.00    +0.000 OA
ATOM     21  H   UNL     1      19.078  14.554  39.083  0.00  0.00    +0.000 HD
ENDBRANCH  17  20
BRANCH   9  22
ATOM     22  O   UNL     1      14.562  13.172  45.539  0.00  0.00    +0.000 OA
ATOM     23  H   UNL     1      13.954  13.931  45.714  0.00  0.00    +0.000 HD
ENDBRANCH   9  22
ENDBRANCH   1  11
BRANCH   4  24
ATOM     24  O   UNL     1      11.299  11.387  40.609  0.00  0.00    +0.000 OA
ATOM     25  H   UNL     1      10.378  11.547  40.348  0.00  0.00    +0.000 HD
ENDBRANCH   4  24
BRANCH   6  26
ATOM     26  O   UNL     1       9.417  13.036  41.694  0.00  0.00    +0.000 OA
BRANCH  26  27
ATOM     27  C   UNL     1       8.224  13.227  42.493  0.00  0.00    +0.000 C 
ATOM     28  O   UNL     1       7.857  14.632  42.567  0.00  0.00    +0.000 OA
ATOM     29  C   UNL     1       7.058  12.429  41.852  0.00  0.00    +0.000 C 
ATOM     30  C   UNL     1       7.570  15.268  41.294  0.00  0.00    +0.000 C 
ATOM     31  C   UNL     1       6.624  13.058  40.502  0.00  0.00    +0.000 C 
ATOM     32  C   UNL     1       6.340  14.573  40.657  0.00  0.00    +0.000 C 
BRANCH  29  33
ATOM     33  O   UNL     1       5.952  12.401  42.763  0.00  0.00    +0.000 OA
ATOM     34  H   UNL     1       5.266  11.818  42.391  0.00  0.00    +0.000 HD
ENDBRANCH  29  33
BRANCH  32  35
ATOM     35  O   UNL     1       6.055  15.155  39.378  0.00  0.00    +0.000 OA
ATOM     36  H   UNL     1       6.870  15.165  38.847  0.00  0.00    +0.000 HD
ENDBRANCH  32  35
BRANCH  31  37
ATOM     37  O   UNL     1       5.459  12.383  40.008  0.00  0.00    +0.000 OA
ATOM     38  H   UNL     1       5.355  11.547  40.502  0.00  0.00    +0.000 HD
ENDBRANCH  31  37
BRANCH  30  39
ATOM     39  C   UNL     1       7.356  16.777  41.542  0.00  0.00    +0.000 C 
BRANCH  39  40
ATOM     40  O   UNL     1       7.577  17.529  40.346  0.00  0.00    +0.000 OA
ATOM     41  H   UNL     1       7.740  18.454  40.600  0.00  0.00    +0.000 HD
ENDBRANCH  39  40
ENDBRANCH  30  39
ENDBRANCH  26  27
ENDBRANCH   6  26
TORSDOF 12
ENDMDL
MODEL 2
REMARK VINA RESULT:    -7.305      0.986      1.256
REMARK INTER + INTRA:         -11.393
REMARK INTER:                 -10.353
REMARK INTRA:                  -1.040
REMARK UNBOUND:                -0.671
REMARK  Name = opt55.pdb
REMARK  12 active torsions:
REMARK  status: ('A' for Active; 'I' for Inactive)
REMARK    1  A    between atoms: C_3  and  O_5
REMARK    2  A    between atoms: C_6  and  C_10
REMARK    3  A    between atoms: C_8  and  O_12
REMARK    4  A    between atoms: C_16  and  O_19
REMARK    5  A    between atoms: C_17  and  O_20
REMARK    6  A    between atoms: C_21  and  O_22
REMARK    7  A    between atoms: O_22  and  C_23
REMARK    8  A    between atoms: C_25  and  O_27
REMARK    9  A    between atoms: C_26  and  C_30
REMARK   10  A    between atoms: C_28  and  O_31
REMARK   11  A    between atoms: C_29  and  O_32
REMARK   12  A    between atoms: C_30  and  O_33
REMARK                            x       y       z     vdW  Elec       q    Type
REMARK                         _______ _______ _______ _____ _____    ______ ____
ROOT
ATOM      1  C   UNL     1      13.563  13.969  43.062  0.00  0.00    +0.000 A 
ATOM      2  C   UNL     1      12.875  12.778  42.768  0.00  0.00    +0.000 A 
ATOM      3  C   UNL     1      12.846  15.180  43.052  0.00  0.00    +0.000 A 
ATOM      4  C   UNL     1      11.518  12.805  42.437  0.00  0.00    +0.000 A 
ATOM      5  C   UNL     1      11.493  15.201  42.707  0.00  0.00    +0.000 A 
ATOM      6  C   UNL     1      10.828  14.018  42.372  0.00  0.00    +0.000 A 
ENDROOT
BRANCH   1  11
ATOM      7  O   UNL     1      17.479  14.120  45.631  0.00  0.00    +0.000 OA
ATOM      8  C   UNL     1      16.950  14.123  44.534  0.00  0.00    +0.000 A 
ATOM      9  C   UNL     1      15.486  13.952  44.340  0.00  0.00    +0.000 A 
ATOM     10  C   UNL     1      17.689  14.287  43.269  0.00  0.00    +0.000 A 
ATOM     11  C   UNL     1      15.057  13.960  43.289  0.00  0.00    +0.000 A 
ATOM     12  C   UNL     1      16.923  14.235  42.123  0.00  0.00    +0.000 A 
ATOM     13  C   UNL     1      19.116  14.488  43.134  0.00  0.00    +0.000 A 
ATOM     14  O   UNL     1      15.550  14.035  42.276  0.00  0.00    +0.000 OA
ATOM     15  C   UNL     1      17.561  14.383  40.827  0.00  0.00    +0.000 A 
ATOM     16  C   UNL     1      19.710  14.635  41.889  0.00  0.00    +0.000 A 
ATOM     17  C   UNL     1      18.945  14.584  40.735  0.00  0.00    +0.000 A 
BRANCH  13  18
ATOM     18  O   UNL     1      19.906  14.542  44.236  0.00  0.00    +0.000 OA
ATOM     19  H   UNL     1      20.100  15.484  44.386  0.00  0.00    +0.000 HD
ENDBRANCH  13  18
BRANCH  17  20
ATOM     20  O   UNL     1      19.606  14.740  39.547  0.00  0.00    +0.000 OA
ATOM     21  H   UNL     1      20.364  15.337  39.600  0.00  0.00    +0.000 HD
ENDBRANCH  17  20
BRANCH   9  22
ATOM     22  O   UNL     1      14.861  13.764  45.535  0.00  0.00    +0.000 OA
ATOM     23  H   UNL     1      13.978  14.206  45.477  0.00  0.00    +0.000 HD
ENDBRANCH   9  22
ENDBRANCH   1  11
BRANCH   4  24
ATOM     24  O   UNL     1      10.864  11.641  42.144  0.00  0.00    +0.000 OA
ATOM     25  H   UNL     1      11.451  11.031  41.669  0.00  0.00    +0.000 HD
ENDBRANCH   4  24
BRANCH   6  26
ATOM     26  O   UNL     1       9.503  13.996  41.953  0.00  0.00    +0.000 OA
BRANCH  26  27
ATOM     27  C   UNL     1       8.353  14.144  42.821  0.00  0.00    +0.000 C 
ATOM     28  O   UNL     1       7.355  15.021  42.231  0.00  0.00    +0.000 OA
ATOM     29  C   UNL     1       7.724  12.747  43.064  0.00  0.00    +0.000 C 
ATOM     30  C   UNL     1       6.816  14.581  40.956  0.00  0.00    +0.000 C 
ATOM     31  C   UNL     1       7.062  12.198  41.774  0.00  0.00    +0.000 C 
ATOM     32  C   UNL     1       6.081  13.233  41.166  0.00  0.00    +0.000 C 
BRANCH  29  33
ATOM     33  O   UNL     1       6.755  12.845  44.115  0.00  0.00    +0.000 OA
ATOM     34  H   UNL     1       7.049  13.533  44.739  0.00  0.00    +0.000 HD
ENDBRANCH  29  33
BRANCH  32  35
ATOM     35  O   UNL     1       5.571  12.752  39.915  0.00  0.00    +0.000 OA
ATOM     36  H   UNL     1       5.283  11.830  40.025  0.00  0.00    +0.000 HD
ENDBRANCH  32  35
BRANCH  31  37
ATOM     37  O   UNL     1       6.372  10.975  42.068  0.00  0.00    +0.000 OA
ATOM     38  H   UNL     1       6.651  10.671  42.953  0.00  0.00    +0.000 HD
ENDBRANCH  31  37
BRANCH  30  39
ATOM     39  C   UNL     1       5.899  15.695  40.406  0.00  0.00    +0.000 C 
BRANCH  39  40
ATOM     40  O   UNL     1       5.840  15.651  38.978  0.00  0.00    +0.000 OA
ATOM     41  H   UNL     1       5.280  16.388  38.679  0.00  0.00    +0.000 HD
ENDBRANCH  39  40
ENDBRANCH  30  39
ENDBRANCH  26  27
ENDBRANCH   6  26
TORSDOF 12
ENDMDL
MODEL 3
REMARK VINA RESULT:    -7.128      1.811      2.926
REMARK INTER + INTRA:         -11.133
REMARK INTER:                 -10.391
REMARK INTRA:                  -0.742
REMARK UNBOUND:                -0.671
REMARK  Name = opt55.pdb
REMARK  12 active torsions:
REMARK  status: ('A' for Active; 'I' for Inactive)
REMARK    1  A    between atoms: C_3  and  O_5
REMARK    2  A    between atoms: C_6  and  C_10
REMARK    3  A    between atoms: C_8  and  O_12
REMARK    4  A    between atoms: C_16  and  O_19
REMARK    5  A    between atoms: C_17  and  O_20
REMARK    6  A    between atoms: C_21  and  O_22
REMARK    7  A    between atoms: O_22  and  C_23
REMARK    8  A    between atoms: C_25  and  O_27
REMARK    9  A    between atoms: C_26  and  C_30
REMARK   10  A    between atoms: C_28  and  O_31
REMARK   11  A    between atoms: C_29  and  O_32
REMARK   12  A    between atoms: C_30  and  O_33
REMARK                            x       y       z     vdW  Elec       q    Type
REMARK                         _______ _______ _______ _____ _____    ______ ____
ROOT
ATOM      1  C   UNL     1      14.140  13.739  43.987  0.00  0.00    +0.000 A 
ATOM      2  C   UNL     1      13.497  12.530  43.663  0.00  0.00    +0.000 A 
ATOM      3  C   UNL     1      13.353  14.824  44.420  0.00  0.00    +0.000 A 
ATOM      4  C   UNL     1      12.106  12.423  43.737  0.00  0.00    +0.000 A 
ATOM      5  C   UNL     1      11.962  14.713  44.477  0.00  0.00    +0.000 A 
ATOM      6  C   UNL     1      11.329  13.521  44.111  0.00  0.00    +0.000 A 
ENDROOT
BRANCH   1  11
ATOM      7  O   UNL     1      18.562  14.514  45.328  0.00  0.00    +0.000 OA
ATOM      8  C   UNL     1      17.755  14.364  44.427  0.00  0.00    +0.000 A 
ATOM      9  C   UNL     1      16.326  14.030  44.666  0.00  0.00    +0.000 A 
ATOM     10  C   UNL     1      18.093  14.487  42.998  0.00  0.00    +0.000 A 
ATOM     11  C   UNL     1      15.627  13.901  43.781  0.00  0.00    +0.000 A 
ATOM     12  C   UNL     1      17.054  14.255  42.121  0.00  0.00    +0.000 A 
ATOM     13  C   UNL     1      19.392  14.817  42.452  0.00  0.00    +0.000 A 
ATOM     14  O   UNL     1      15.810  13.933  42.667  0.00  0.00    +0.000 OA
ATOM     15  C   UNL     1      17.288  14.348  40.691  0.00  0.00    +0.000 A 
ATOM     16  C   UNL     1      19.599  14.910  41.084  0.00  0.00    +0.000 A 
ATOM     17  C   UNL     1      18.558  14.678  40.198  0.00  0.00    +0.000 A 
BRANCH  13  18
ATOM     18  O   UNL     1      20.442  15.049  43.281  0.00  0.00    +0.000 OA
ATOM     19  H   UNL     1      20.699  14.184  43.644  0.00  0.00    +0.000 HD
ENDBRANCH  13  18
BRANCH  17  20
ATOM     20  O   UNL     1      18.843  14.792  38.865  0.00  0.00    +0.000 OA
ATOM     21  H   UNL     1      18.315  15.463  38.412  0.00  0.00    +0.000 HD
ENDBRANCH  17  20
BRANCH   9  22
ATOM     22  O   UNL     1      16.081  13.890  45.998  0.00  0.00    +0.000 OA
ATOM     23  H   UNL     1      15.767  12.963  46.142  0.00  0.00    +0.000 HD
ENDBRANCH   9  22
ENDBRANCH   1  11
BRANCH   4  24
ATOM     24  O   UNL     1      11.495  11.244  43.411  0.00  0.00    +0.000 OA
ATOM     25  H   UNL     1      11.225  10.769  44.213  0.00  0.00    +0.000 HD
ENDBRANCH   4  24
BRANCH   6  26
ATOM     26  O   UNL     1       9.946  13.385  44.083  0.00  0.00    +0.000 OA
BRANCH  26  27
ATOM     27  C   UNL     1       9.080  13.913  43.048  0.00  0.00    +0.000 C 
ATOM     28  O   UNL     1       8.132  12.909  42.590  0.00  0.00    +0.000 OA
ATOM     29  C   UNL     1       8.302  15.128  43.615  0.00  0.00    +0.000 C 
ATOM     30  C   UNL     1       7.236  12.391  43.609  0.00  0.00    +0.000 C 
ATOM     31  C   UNL     1       7.267  14.683  44.681  0.00  0.00    +0.000 C 
ATOM     32  C   UNL     1       6.357  13.552  44.138  0.00  0.00    +0.000 C 
BRANCH  29  33
ATOM     33  O   UNL     1       7.644  15.809  42.540  0.00  0.00    +0.000 OA
ATOM     34  H   UNL     1       7.807  15.310  41.719  0.00  0.00    +0.000 HD
ENDBRANCH  29  33
BRANCH  32  35
ATOM     35  O   UNL     1       5.488  13.077  45.174  0.00  0.00    +0.000 OA
ATOM     36  H   UNL     1       4.570  13.298  44.942  0.00  0.00    +0.000 HD
ENDBRANCH  32  35
BRANCH  31  37
ATOM     37  O   UNL     1       6.472  15.809  45.081  0.00  0.00    +0.000 OA
ATOM     38  H   UNL     1       5.733  15.903  44.449  0.00  0.00    +0.000 HD
ENDBRANCH  31  37
BRANCH  30  39
ATOM     39  C   UNL     1       6.415  11.237  42.992  0.00  0.00    +0.000 C 
BRANCH  39  40
ATOM     40  O   UNL     1       6.378  11.341  41.566  0.00  0.00    +0.000 OA
ATOM     41  H   UNL     1       5.758  10.668  41.234  0.00  0.00    +0.000 HD
ENDBRANCH  39  40
ENDBRANCH  30  39
ENDBRANCH  26  27
ENDBRANCH   6  26
TORSDOF 12
ENDMDL
MODEL 4
REMARK VINA RESULT:    -6.774      2.209      2.666
REMARK INTER + INTRA:         -10.614
REMARK INTER:                  -9.904
REMARK INTRA:                  -0.710
REMARK UNBOUND:                -0.671
REMARK  Name = opt55.pdb
REMARK  12 active torsions:
REMARK  status: ('A' for Active; 'I' for Inactive)
REMARK    1  A    between atoms: C_3  and  O_5
REMARK    2  A    between atoms: C_6  and  C_10
REMARK    3  A    between atoms: C_8  and  O_12
REMARK    4  A    between atoms: C_16  and  O_19
REMARK    5  A    between atoms: C_17  and  O_20
REMARK    6  A    between atoms: C_21  and  O_22
REMARK    7  A    between atoms: O_22  and  C_23
REMARK    8  A    between atoms: C_25  and  O_27
REMARK    9  A    between atoms: C_26  and  C_30
REMARK   10  A    between atoms: C_28  and  O_31
REMARK   11  A    between atoms: C_29  and  O_32
REMARK   12  A    between atoms: C_30  and  O_33
REMARK                            x       y       z     vdW  Elec       q    Type
REMARK                         _______ _______ _______ _____ _____    ______ ____
ROOT
ATOM      1  C   UNL     1      12.976  13.670  43.715  0.00  0.00    +0.000 A 
ATOM      2  C   UNL     1      12.869  12.980  42.494  0.00  0.00    +0.000 A 
ATOM      3  C   UNL     1      11.819  13.825  44.503  0.00  0.00    +0.000 A 
ATOM      4  C   UNL     1      11.635  12.492  42.059  0.00  0.00    +0.000 A 
ATOM      5  C   UNL     1      10.586  13.347  44.054  0.00  0.00    +0.000 A 
ATOM      6  C   UNL     1      10.482  12.702  42.819  0.00  0.00    +0.000 A 
ENDROOT
BRANCH   1  11
ATOM      7  O   UNL     1      17.302  13.750  45.513  0.00  0.00    +0.000 OA
ATOM      8  C   UNL     1      16.341  14.360  45.079  0.00  0.00    +0.000 A 
ATOM      9  C   UNL     1      15.140  13.686  44.517  0.00  0.00    +0.000 A 
ATOM     10  C   UNL     1      16.250  15.831  45.048  0.00  0.00    +0.000 A 
ATOM     11  C   UNL     1      14.279  14.313  44.126  0.00  0.00    +0.000 A 
ATOM     12  C   UNL     1      15.095  16.342  44.494  0.00  0.00    +0.000 A 
ATOM     13  C   UNL     1      17.248  16.758  45.535  0.00  0.00    +0.000 A 
ATOM     14  O   UNL     1      14.147  15.431  44.026  0.00  0.00    +0.000 OA
ATOM     15  C   UNL     1      14.914  17.781  44.416  0.00  0.00    +0.000 A 
ATOM     16  C   UNL     1      17.058  18.130  45.461  0.00  0.00    +0.000 A 
ATOM     17  C   UNL     1      15.900  18.650  44.905  0.00  0.00    +0.000 A 
BRANCH  13  18
ATOM     18  O   UNL     1      18.400  16.296  46.086  0.00  0.00    +0.000 OA
ATOM     19  H   UNL     1      18.235  15.366  46.320  0.00  0.00    +0.000 HD
ENDBRANCH  13  18
BRANCH  17  20
ATOM     20  O   UNL     1      15.787  20.012  44.870  0.00  0.00    +0.000 OA
ATOM     21  H   UNL     1      15.259  20.339  44.129  0.00  0.00    +0.000 HD
ENDBRANCH  17  20
BRANCH   9  22
ATOM     22  O   UNL     1      15.296  12.334  44.533  0.00  0.00    +0.000 OA
ATOM     23  H   UNL     1      15.005  11.995  43.651  0.00  0.00    +0.000 HD
ENDBRANCH   9  22
ENDBRANCH   1  11
BRANCH   4  24
ATOM     24  O   UNL     1      11.545  11.831  40.866  0.00  0.00    +0.000 OA
ATOM     25  H   UNL     1      11.259  10.914  41.006  0.00  0.00    +0.000 HD
ENDBRANCH   4  24
BRANCH   6  26
ATOM     26  O   UNL     1       9.266  12.273  42.298  0.00  0.00    +0.000 OA
BRANCH  26  27
ATOM     27  C   UNL     1       7.976  12.475  42.924  0.00  0.00    +0.000 C 
ATOM     28  O   UNL     1       7.686  13.890  43.093  0.00  0.00    +0.000 OA
ATOM     29  C   UNL     1       6.880  11.833  42.033  0.00  0.00    +0.000 C 
ATOM     30  C   UNL     1       7.640  14.666  41.867  0.00  0.00    +0.000 C 
ATOM     31  C   UNL     1       6.702  12.620  40.709  0.00  0.00    +0.000 C 
ATOM     32  C   UNL     1       6.486  14.130  40.981  0.00  0.00    +0.000 C 
BRANCH  29  33
ATOM     33  O   UNL     1       5.645  11.799  42.759  0.00  0.00    +0.000 OA
ATOM     34  H   UNL     1       5.134  11.028  42.455  0.00  0.00    +0.000 HD
ENDBRANCH  29  33
BRANCH  32  35
ATOM     35  O   UNL     1       6.441  14.853  39.744  0.00  0.00    +0.000 OA
ATOM     36  H   UNL     1       7.309  15.261  39.584  0.00  0.00    +0.000 HD
ENDBRANCH  32  35
BRANCH  31  37
ATOM     37  O   UNL     1       5.590  12.085  39.976  0.00  0.00    +0.000 OA
ATOM     38  H   UNL     1       5.332  12.734  39.294  0.00  0.00    +0.000 HD
ENDBRANCH  31  37
BRANCH  30  39
ATOM     39  C   UNL     1       7.480  16.156  42.241  0.00  0.00    +0.000 C 
BRANCH  39  40
ATOM     40  O   UNL     1       6.126  16.583  42.072  0.00  0.00    +0.000 OA
ATOM     41  H   UNL     1       5.867  17.078  42.869  0.00  0.00    +0.000 HD
ENDBRANCH  39  40
ENDBRANCH  30  39
ENDBRANCH  26  27
ENDBRANCH   6  26
TORSDOF 12
ENDMDL
MODEL 5
REMARK VINA RESULT:    -6.666      2.313      9.629
REMARK INTER + INTRA:         -10.454
REMARK INTER:                  -9.510
REMARK INTRA:                  -0.945
REMARK UNBOUND:                -0.671
REMARK  Name = opt55.pdb
REMARK  12 active torsions:
REMARK  status: ('A' for Active; 'I' for Inactive)
REMARK    1  A    between atoms: C_3  and  O_5
REMARK    2  A    between atoms: C_6  and  C_10
REMARK    3  A    between atoms: C_8  and  O_12
REMARK    4  A    between atoms: C_16  and  O_19
REMARK    5  A    between atoms: C_17  and  O_20
REMARK    6  A    between atoms: C_21  and  O_22
REMARK    7  A    between atoms: O_22  and  C_23
REMARK    8  A    between atoms: C_25  and  O_27
REMARK    9  A    between atoms: C_26  and  C_30
REMARK   10  A    between atoms: C_28  and  O_31
REMARK   11  A    between atoms: C_29  and  O_32
REMARK   12  A    between atoms: C_30  and  O_33
REMARK                            x       y       z     vdW  Elec       q    Type
REMARK                         _______ _______ _______ _____ _____    ______ ____
ROOT
ATOM      1  C   UNL     1      11.768  13.466  43.422  0.00  0.00    +0.000 A 
ATOM      2  C   UNL     1      12.543  13.429  44.596  0.00  0.00    +0.000 A 
ATOM      3  C   UNL     1      12.424  13.370  42.180  0.00  0.00    +0.000 A 
ATOM      4  C   UNL     1      13.935  13.336  44.525  0.00  0.00    +0.000 A 
ATOM      5  C   UNL     1      13.817  13.290  42.117  0.00  0.00    +0.000 A 
ATOM      6  C   UNL     1      14.582  13.299  43.288  0.00  0.00    +0.000 A 
ENDROOT
BRANCH   1  11
ATOM      7  O   UNL     1       7.886  15.973  44.197  0.00  0.00    +0.000 OA
ATOM      8  C   UNL     1       8.402  14.896  43.953  0.00  0.00    +0.000 A 
ATOM      9  C   UNL     1       9.861  14.732  43.717  0.00  0.00    +0.000 A 
ATOM     10  C   UNL     1       7.651  13.632  43.853  0.00  0.00    +0.000 A 
ATOM     11  C   UNL     1      10.278  13.701  43.490  0.00  0.00    +0.000 A 
ATOM     12  C   UNL     1       8.403  12.519  43.540  0.00  0.00    +0.000 A 
ATOM     13  C   UNL     1       6.226  13.468  44.046  0.00  0.00    +0.000 A 
ATOM     14  O   UNL     1       9.774  12.699  43.353  0.00  0.00    +0.000 OA
ATOM     15  C   UNL     1       7.752  11.226  43.417  0.00  0.00    +0.000 A 
ATOM     16  C   UNL     1       5.620  12.226  43.932  0.00  0.00    +0.000 A 
ATOM     17  C   UNL     1       6.370  11.103  43.618  0.00  0.00    +0.000 A 
BRANCH  13  18
ATOM     18  O   UNL     1       5.450  14.539  44.352  0.00  0.00    +0.000 OA
ATOM     19  H   UNL     1       5.357  14.539  45.321  0.00  0.00    +0.000 HD
ENDBRANCH  13  18
BRANCH  17  20
ATOM     20  O   UNL     1       5.698   9.915  43.526  0.00  0.00    +0.000 OA
ATOM     21  H   UNL     1       6.268   9.139  43.620  0.00  0.00    +0.000 HD
ENDBRANCH  17  20
BRANCH   9  22
ATOM     22  O   UNL     1      10.497  15.934  43.780  0.00  0.00    +0.000 OA
ATOM     23  H   UNL     1      11.445  15.753  43.993  0.00  0.00    +0.000 HD
ENDBRANCH   9  22
ENDBRANCH   1  11
BRANCH   4  24
ATOM     24  O   UNL     1      14.676  13.310  45.674  0.00  0.00    +0.000 OA
ATOM     25  H   UNL     1      14.929  12.400  45.894  0.00  0.00    +0.000 HD
ENDBRANCH   4  24
BRANCH   6  26
ATOM     26  O   UNL     1      15.972  13.295  43.275  0.00  0.00    +0.000 OA
BRANCH  26  27
ATOM     27  C   UNL     1      16.799  14.261  42.581  0.00  0.00    +0.000 C 
ATOM     28  O   UNL     1      16.272  15.608  42.725  0.00  0.00    +0.000 OA
ATOM     29  C   UNL     1      18.233  14.208  43.171  0.00  0.00    +0.000 C 
ATOM     30  C   UNL     1      16.179  16.096  44.090  0.00  0.00    +0.000 C 
ATOM     31  C   UNL     1      18.265  14.764  44.618  0.00  0.00    +0.000 C 
ATOM     32  C   UNL     1      17.604  16.164  44.693  0.00  0.00    +0.000 C 
BRANCH  29  33
ATOM     33  O   UNL     1      19.114  14.964  42.331  0.00  0.00    +0.000 OA
ATOM     34  H   UNL     1      19.744  15.441  42.900  0.00  0.00    +0.000 HD
ENDBRANCH  29  33
BRANCH  32  35
ATOM     35  O   UNL     1      17.540  16.606  46.055  0.00  0.00    +0.000 OA
ATOM     36  H   UNL     1      17.419  15.833  46.633  0.00  0.00    +0.000 HD
ENDBRANCH  32  35
BRANCH  31  37
ATOM     37  O   UNL     1      19.622  14.831  45.080  0.00  0.00    +0.000 OA
ATOM     38  H   UNL     1      20.129  15.390  44.460  0.00  0.00    +0.000 HD
ENDBRANCH  31  37
BRANCH  30  39
ATOM     39  C   UNL     1      15.461  17.464  44.068  0.00  0.00    +0.000 C 
BRANCH  39  40
ATOM     40  O   UNL     1      14.934  17.786  45.358  0.00  0.00    +0.000 OA
ATOM     41  H   UNL     1      14.523  16.982  45.722  0.00  0.00    +0.000 HD
ENDBRANCH  39  40
ENDBRANCH  30  39
ENDBRANCH  26  27
ENDBRANCH   6  26
TORSDOF 12
ENDMDL
MODEL 6
REMARK VINA RESULT:    -6.655      2.031      9.505
REMARK INTER + INTRA:         -10.439
REMARK INTER:                  -9.484
REMARK INTRA:                  -0.955
REMARK UNBOUND:                -0.671
REMARK  Name = opt55.pdb
REMARK  12 active torsions:
REMARK  status: ('A' for Active; 'I' for Inactive)
REMARK    1  A    between atoms: C_3  and  O_5
REMARK    2  A    between atoms: C_6  and  C_10
REMARK    3  A    between atoms: C_8  and  O_12
REMARK    4  A    between atoms: C_16  and  O_19
REMARK    5  A    between atoms: C_17  and  O_20
REMARK    6  A    between atoms: C_21  and  O_22
REMARK    7  A    between atoms: O_22  and  C_23
REMARK    8  A    between atoms: C_25  and  O_27
REMARK    9  A    between atoms: C_26  and  C_30
REMARK   10  A    between atoms: C_28  and  O_31
REMARK   11  A    between atoms: C_29  and  O_32
REMARK   12  A    between atoms: C_30  and  O_33
REMARK                            x       y       z     vdW  Elec       q    Type
REMARK                         _______ _______ _______ _____ _____    ______ ____
ROOT
ATOM      1  C   UNL     1      12.201  13.064  43.356  0.00  0.00    +0.000 A 
ATOM      2  C   UNL     1      12.929  13.184  44.554  0.00  0.00    +0.000 A 
ATOM      3  C   UNL     1      12.912  12.938  42.147  0.00  0.00    +0.000 A 
ATOM      4  C   UNL     1      14.326  13.212  44.536  0.00  0.00    +0.000 A 
ATOM      5  C   UNL     1      14.308  12.980  42.136  0.00  0.00    +0.000 A 
ATOM      6  C   UNL     1      15.022  13.144  43.327  0.00  0.00    +0.000 A 
ENDROOT
BRANCH   1  11
ATOM      7  O   UNL     1       7.833  11.567  42.565  0.00  0.00    +0.000 OA
ATOM      8  C   UNL     1       8.584  12.469  42.888  0.00  0.00    +0.000 A 
ATOM      9  C   UNL     1      10.051  12.285  43.049  0.00  0.00    +0.000 A 
ATOM     10  C   UNL     1       8.137  13.846  43.166  0.00  0.00    +0.000 A 
ATOM     11  C   UNL     1      10.695  13.168  43.356  0.00  0.00    +0.000 A 
ATOM     12  C   UNL     1       9.129  14.727  43.546  0.00  0.00    +0.000 A 
ATOM     13  C   UNL     1       6.779  14.337  43.079  0.00  0.00    +0.000 A 
ATOM     14  O   UNL     1      10.432  14.232  43.627  0.00  0.00    +0.000 OA
ATOM     15  C   UNL     1       8.787  16.106  43.844  0.00  0.00    +0.000 A 
ATOM     16  C   UNL     1       6.468  15.660  43.360  0.00  0.00    +0.000 A 
ATOM     17  C   UNL     1       7.461  16.548  43.742  0.00  0.00    +0.000 A 
BRANCH  13  18
ATOM     18  O   UNL     1       5.773  13.503  42.711  0.00  0.00    +0.000 OA
ATOM     19  H   UNL     1       6.159  12.875  42.076  0.00  0.00    +0.000 HD
ENDBRANCH  13  18
BRANCH  17  20
ATOM     20  O   UNL     1       7.074  17.835  43.999  0.00  0.00    +0.000 OA
ATOM     21  H   UNL     1       6.344  18.139  43.443  0.00  0.00    +0.000 HD
ENDBRANCH  17  20
BRANCH   9  22
ATOM     22  O   UNL     1      10.400  10.989  42.821  0.00  0.00    +0.000 OA
ATOM     23  H   UNL     1      10.354  10.840  41.845  0.00  0.00    +0.000 HD
ENDBRANCH   9  22
ENDBRANCH   1  11
BRANCH   4  24
ATOM     24  O   UNL     1      15.020  13.338  45.707  0.00  0.00    +0.000 OA
ATOM     25  H   UNL     1      14.447  13.139  46.465  0.00  0.00    +0.000 HD
ENDBRANCH   4  24
BRANCH   6  26
ATOM     26  O   UNL     1      16.406  13.265  43.360  0.00  0.00    +0.000 OA
BRANCH  26  27
ATOM     27  C   UNL     1      17.173  14.241  42.614  0.00  0.00    +0.000 C 
ATOM     28  O   UNL     1      16.587  15.568  42.720  0.00  0.00    +0.000 OA
ATOM     29  C   UNL     1      18.620  14.278  43.173  0.00  0.00    +0.000 C 
ATOM     30  C   UNL     1      16.498  16.102  44.068  0.00  0.00    +0.000 C 
ATOM     31  C   UNL     1      18.654  14.888  44.598  0.00  0.00    +0.000 C 
ATOM     32  C   UNL     1      17.930  16.258  44.637  0.00  0.00    +0.000 C 
BRANCH  29  33
ATOM     33  O   UNL     1      19.447  15.041  42.287  0.00  0.00    +0.000 OA
ATOM     34  H   UNL     1      20.373  14.940  42.572  0.00  0.00    +0.000 HD
ENDBRANCH  29  33
BRANCH  32  35
ATOM     35  O   UNL     1      17.873  16.748  45.983  0.00  0.00    +0.000 OA
ATOM     36  H   UNL     1      18.605  16.359  46.492  0.00  0.00    +0.000 HD
ENDBRANCH  32  35
BRANCH  31  37
ATOM     37  O   UNL     1      20.016  15.035  45.027  0.00  0.00    +0.000 OA
ATOM     38  H   UNL     1      20.127  14.549  45.867  0.00  0.00    +0.000 HD
ENDBRANCH  31  37
BRANCH  30  39
ATOM     39  C   UNL     1      15.716  17.433  44.012  0.00  0.00    +0.000 C 
BRANCH  39  40
ATOM     40  O   UNL     1      15.166  17.757  45.291  0.00  0.00    +0.000 OA
ATOM     41  H   UNL     1      14.482  17.097  45.498  0.00  0.00    +0.000 HD
ENDBRANCH  39  40
ENDBRANCH  30  39
ENDBRANCH  26  27
ENDBRANCH   6  26
TORSDOF 12
ENDMDL
MODEL 7
REMARK VINA RESULT:    -6.624      2.361      3.061
REMARK INTER + INTRA:         -10.393
REMARK INTER:                  -9.459
REMARK INTRA:                  -0.933
REMARK UNBOUND:                -0.671
REMARK  Name = opt55.pdb
REMARK  12 active torsions:
REMARK  status: ('A' for Active; 'I' for Inactive)
REMARK    1  A    between atoms: C_3  and  O_5
REMARK    2  A    between atoms: C_6  and  C_10
REMARK    3  A    between atoms: C_8  and  O_12
REMARK    4  A    between atoms: C_16  and  O_19
REMARK    5  A    between atoms: C_17  and  O_20
REMARK    6  A    between atoms: C_21  and  O_22
REMARK    7  A    between atoms: O_22  and  C_23
REMARK    8  A    between atoms: C_25  and  O_27
REMARK    9  A    between atoms: C_26  and  C_30
REMARK   10  A    between atoms: C_28  and  O_31
REMARK   11  A    between atoms: C_29  and  O_32
REMARK   12  A    between atoms: C_30  and  O_33
REMARK                            x       y       z     vdW  Elec       q    Type
REMARK                         _______ _______ _______ _____ _____    ______ ____
ROOT
ATOM      1  C   UNL     1      12.847  15.364  43.979  0.00  0.00    +0.000 A 
ATOM      2  C   UNL     1      12.384  15.780  42.717  0.00  0.00    +0.000 A 
ATOM      3  C   UNL     1      12.074  14.440  44.707  0.00  0.00    +0.000 A 
ATOM      4  C   UNL     1      11.166  15.312  42.217  0.00  0.00    +0.000 A 
ATOM      5  C   UNL     1      10.851  13.988  44.207  0.00  0.00    +0.000 A 
ATOM      6  C   UNL     1      10.378  14.441  42.972  0.00  0.00    +0.000 A 
ENDROOT
BRANCH   1  11
ATOM      7  O   UNL     1      15.422  18.769  45.910  0.00  0.00    +0.000 OA
ATOM      8  C   UNL     1      15.360  17.649  45.433  0.00  0.00    +0.000 A 
ATOM      9  C   UNL     1      14.082  17.016  45.013  0.00  0.00    +0.000 A 
ATOM     10  C   UNL     1      16.535  16.784  45.223  0.00  0.00    +0.000 A 
ATOM     11  C   UNL     1      14.094  15.968  44.580  0.00  0.00    +0.000 A 
ATOM     12  C   UNL     1      16.266  15.537  44.699  0.00  0.00    +0.000 A 
ATOM     13  C   UNL     1      17.910  17.124  45.518  0.00  0.00    +0.000 A 
ATOM     14  O   UNL     1      14.933  15.227  44.426  0.00  0.00    +0.000 OA
ATOM     15  C   UNL     1      17.358  14.610  44.458  0.00  0.00    +0.000 A 
ATOM     16  C   UNL     1      18.944  16.231  45.276  0.00  0.00    +0.000 A 
ATOM     17  C   UNL     1      18.680  14.977  44.749  0.00  0.00    +0.000 A 
BRANCH  13  18
ATOM     18  O   UNL     1      18.217  18.340  46.038  0.00  0.00    +0.000 OA
ATOM     19  H   UNL     1      17.630  18.465  46.803  0.00  0.00    +0.000 HD
ENDBRANCH  13  18
BRANCH  17  20
ATOM     20  O   UNL     1      19.753  14.156  44.537  0.00  0.00    +0.000 OA
ATOM     21  H   UNL     1      20.121  13.781  45.349  0.00  0.00    +0.000 HD
ENDBRANCH  17  20
BRANCH   9  22
ATOM     22  O   UNL     1      13.030  17.842  45.268  0.00  0.00    +0.000 OA
ATOM     23  H   UNL     1      12.382  17.726  44.530  0.00  0.00    +0.000 HD
ENDBRANCH   9  22
ENDBRANCH   1  11
BRANCH   4  24
ATOM     24  O   UNL     1      10.725  15.732  40.993  0.00  0.00    +0.000 OA
ATOM     25  H   UNL     1       9.757  15.697  40.950  0.00  0.00    +0.000 HD
ENDBRANCH   4  24
BRANCH   6  26
ATOM     26  O   UNL     1       9.136  14.077  42.466  0.00  0.00    +0.000 OA
BRANCH  26  27
ATOM     27  C   UNL     1       7.896  14.088  43.216  0.00  0.00    +0.000 C 
ATOM     28  O   UNL     1       6.883  14.890  42.549  0.00  0.00    +0.000 OA
ATOM     29  C   UNL     1       7.382  12.632  43.358  0.00  0.00    +0.000 C 
ATOM     30  C   UNL     1       6.517  14.446  41.216  0.00  0.00    +0.000 C 
ATOM     31  C   UNL     1       6.906  12.070  41.993  0.00  0.00    +0.000 C 
ATOM     32  C   UNL     1       5.897  13.030  41.315  0.00  0.00    +0.000 C 
BRANCH  29  33
ATOM     33  O   UNL     1       6.308  12.604  44.307  0.00  0.00    +0.000 OA
ATOM     34  H   UNL     1       6.028  13.521  44.477  0.00  0.00    +0.000 HD
ENDBRANCH  29  33
BRANCH  32  35
ATOM     35  O   UNL     1       5.561  12.549  40.007  0.00  0.00    +0.000 OA
ATOM     36  H   UNL     1       5.521  11.577  40.029  0.00  0.00    +0.000 HD
ENDBRANCH  32  35
BRANCH  31  37
ATOM     37  O   UNL     1       6.310  10.779  42.185  0.00  0.00    +0.000 OA
ATOM     38  H   UNL     1       5.398  10.907  42.509  0.00  0.00    +0.000 HD
ENDBRANCH  31  37
BRANCH  30  39
ATOM     39  C   UNL     1       5.558  15.490  40.603  0.00  0.00    +0.000 C 
BRANCH  39  40
ATOM     40  O   UNL     1       5.647  15.492  39.176  0.00  0.00    +0.000 OA
ATOM     41  H   UNL     1       5.151  16.261  38.846  0.00  0.00    +0.000 HD
ENDBRANCH  39  40
ENDBRANCH  30  39
ENDBRANCH  26  27
ENDBRANCH   6  26
TORSDOF 12
ENDMDL
MODEL 8
REMARK VINA RESULT:    -6.606      1.818      2.679
REMARK INTER + INTRA:         -10.367
REMARK INTER:                  -9.274
REMARK INTRA:                  -1.093
REMARK UNBOUND:                -0.671
REMARK  Name = opt55.pdb
REMARK  12 active torsions:
REMARK  status: ('A' for Active; 'I' for Inactive)
REMARK    1  A    between atoms: C_3  and  O_5
REMARK    2  A    between atoms: C_6  and  C_10
REMARK    3  A    between atoms: C_8  and  O_12
REMARK    4  A    between atoms: C_16  and  O_19
REMARK    5  A    between atoms: C_17  and  O_20
REMARK    6  A    between atoms: C_21  and  O_22
REMARK    7  A    between atoms: O_22  and  C_23
REMARK    8  A    between atoms: C_25  and  O_27
REMARK    9  A    between atoms: C_26  and  C_30
REMARK   10  A    between atoms: C_28  and  O_31
REMARK   11  A    between atoms: C_29  and  O_32
REMARK   12  A    between atoms: C_30  and  O_33
REMARK                            x       y       z     vdW  Elec       q    Type
REMARK                         _______ _______ _______ _____ _____    ______ ____
ROOT
ATOM      1  C   UNL     1      14.067  13.903  43.693  0.00  0.00    +0.000 A 
ATOM      2  C   UNL     1      13.292  15.061  43.892  0.00  0.00    +0.000 A 
ATOM      3  C   UNL     1      13.423  12.651  43.714  0.00  0.00    +0.000 A 
ATOM      4  C   UNL     1      11.921  14.963  44.140  0.00  0.00    +0.000 A 
ATOM      5  C   UNL     1      12.054  12.562  43.976  0.00  0.00    +0.000 A 
ATOM      6  C   UNL     1      11.301  13.714  44.216  0.00  0.00    +0.000 A 
ENDROOT
BRANCH   1  11
ATOM      7  O   UNL     1      18.449  14.522  45.234  0.00  0.00    +0.000 OA
ATOM      8  C   UNL     1      17.681  14.383  44.298  0.00  0.00    +0.000 A 
ATOM      9  C   UNL     1      16.229  14.118  44.474  0.00  0.00    +0.000 A 
ATOM     10  C   UNL     1      18.093  14.453  42.885  0.00  0.00    +0.000 A 
ATOM     11  C   UNL     1      15.569  13.995  43.559  0.00  0.00    +0.000 A 
ATOM     12  C   UNL     1      17.089  14.243  41.963  0.00  0.00    +0.000 A 
ATOM     13  C   UNL     1      19.431  14.713  42.397  0.00  0.00    +0.000 A 
ATOM     14  O   UNL     1      15.807  13.990  42.454  0.00  0.00    +0.000 OA
ATOM     15  C   UNL     1      17.397  14.289  40.545  0.00  0.00    +0.000 A 
ATOM     16  C   UNL     1      19.708  14.760  41.038  0.00  0.00    +0.000 A 
ATOM     17  C   UNL     1      18.703  14.551  40.108  0.00  0.00    +0.000 A 
BRANCH  13  18
ATOM     18  O   UNL     1      20.448  14.922  43.271  0.00  0.00    +0.000 OA
ATOM     19  H   UNL     1      20.425  15.869  43.493  0.00  0.00    +0.000 HD
ENDBRANCH  13  18
BRANCH  17  20
ATOM     20  O   UNL     1      19.057  14.617  38.788  0.00  0.00    +0.000 OA
ATOM     21  H   UNL     1      19.956  14.940  38.644  0.00  0.00    +0.000 HD
ENDBRANCH  17  20
BRANCH   9  22
ATOM     22  O   UNL     1      15.913  14.023  45.795  0.00  0.00    +0.000 OA
ATOM     23  H   UNL     1      16.745  14.177  46.306  0.00  0.00    +0.000 HD
ENDBRANCH   9  22
ENDBRANCH   1  11
BRANCH   4  24
ATOM     24  O   UNL     1      11.182  16.096  44.339  0.00  0.00    +0.000 OA
ATOM     25  H   UNL     1      11.459  16.795  43.726  0.00  0.00    +0.000 HD
ENDBRANCH   4  24
BRANCH   6  26
ATOM     26  O   UNL     1       9.953  13.672  44.552  0.00  0.00    +0.000 OA
BRANCH  26  27
ATOM     27  C   UNL     1       8.929  12.981  43.795  0.00  0.00    +0.000 C 
ATOM     28  O   UNL     1       7.612  13.187  44.378  0.00  0.00    +0.000 OA
ATOM     29  C   UNL     1       8.932  13.518  42.340  0.00  0.00    +0.000 C 
ATOM     30  C   UNL     1       7.171  14.569  44.443  0.00  0.00    +0.000 C 
ATOM     31  C   UNL     1       8.420  14.981  42.281  0.00  0.00    +0.000 C 
ATOM     32  C   UNL     1       7.055  15.124  43.002  0.00  0.00    +0.000 C 
BRANCH  29  33
ATOM     33  O   UNL     1       8.110  12.673  41.526  0.00  0.00    +0.000 OA
ATOM     34  H   UNL     1       8.154  12.997  40.608  0.00  0.00    +0.000 HD
ENDBRANCH  29  33
BRANCH  32  35
ATOM     35  O   UNL     1       6.658  16.501  43.036  0.00  0.00    +0.000 OA
ATOM     36  H   UNL     1       7.453  17.057  43.112  0.00  0.00    +0.000 HD
ENDBRANCH  32  35
BRANCH  31  37
ATOM     37  O   UNL     1       8.304  15.396  40.913  0.00  0.00    +0.000 OA
ATOM     38  H   UNL     1       7.356  15.421  40.679  0.00  0.00    +0.000 HD
ENDBRANCH  31  37
BRANCH  30  39
ATOM     39  C   UNL     1       5.839  14.617  45.224  0.00  0.00    +0.000 C 
BRANCH  39  40
ATOM     40  O   UNL     1       5.590  15.930  45.732  0.00  0.00    +0.000 OA
ATOM     41  H   UNL     1       5.085  15.839  46.559  0.00  0.00    +0.000 HD
ENDBRANCH  39  40
ENDBRANCH  30  39
ENDBRANCH  26  27
ENDBRANCH   6  26
TORSDOF 12
ENDMDL
MODEL 9
REMARK VINA RESULT:    -6.580      2.341      9.710
REMARK INTER + INTRA:         -10.328
REMARK INTER:                  -9.509
REMARK INTRA:                  -0.819
REMARK UNBOUND:                -0.671
REMARK  Name = opt55.pdb
REMARK  12 active torsions:
REMARK  status: ('A' for Active; 'I' for Inactive)
REMARK    1  A    between atoms: C_3  and  O_5
REMARK    2  A    between atoms: C_6  and  C_10
REMARK    3  A    between atoms: C_8  and  O_12
REMARK    4  A    between atoms: C_16  and  O_19
REMARK    5  A    between atoms: C_17  and  O_20
REMARK    6  A    between atoms: C_21  and  O_22
REMARK    7  A    between atoms: O_22  and  C_23
REMARK    8  A    between atoms: C_25  and  O_27
REMARK    9  A    between atoms: C_26  and  C_30
REMARK   10  A    between atoms: C_28  and  O_31
REMARK   11  A    between atoms: C_29  and  O_32
REMARK   12  A    between atoms: C_30  and  O_33
REMARK                            x       y       z     vdW  Elec       q    Type
REMARK                         _______ _______ _______ _____ _____    ______ ____
ROOT
ATOM      1  C   UNL     1      11.544  15.530  43.254  0.00  0.00    +0.000 A 
ATOM      2  C   UNL     1      12.628  15.577  42.358  0.00  0.00    +0.000 A 
ATOM      3  C   UNL     1      11.632  16.260  44.454  0.00  0.00    +0.000 A 
ATOM      4  C   UNL     1      13.779  16.303  42.673  0.00  0.00    +0.000 A 
ATOM      5  C   UNL     1      12.792  16.973  44.768  0.00  0.00    +0.000 A 
ATOM      6  C   UNL     1      13.881  16.977  43.892  0.00  0.00    +0.000 A 
ENDROOT
BRANCH   1  11
ATOM      7  O   UNL     1       9.182  11.485  43.183  0.00  0.00    +0.000 OA
ATOM      8  C   UNL     1       9.250  12.659  42.867  0.00  0.00    +0.000 A 
ATOM      9  C   UNL     1      10.353  13.554  43.306  0.00  0.00    +0.000 A 
ATOM     10  C   UNL     1       8.251  13.338  42.021  0.00  0.00    +0.000 A 
ATOM     11  C   UNL     1      10.355  14.641  42.978  0.00  0.00    +0.000 A 
ATOM     12  C   UNL     1       8.481  14.679  41.793  0.00  0.00    +0.000 A 
ATOM     13  C   UNL     1       7.078  12.732  41.431  0.00  0.00    +0.000 A 
ATOM     14  O   UNL     1       9.616  15.246  42.375  0.00  0.00    +0.000 OA
ATOM     15  C   UNL     1       7.551  15.437  40.974  0.00  0.00    +0.000 A 
ATOM     16  C   UNL     1       6.202  13.467  40.645  0.00  0.00    +0.000 A 
ATOM     17  C   UNL     1       6.428  14.814  40.412  0.00  0.00    +0.000 A 
BRANCH  13  18
ATOM     18  O   UNL     1       6.813  11.416  41.634  0.00  0.00    +0.000 OA
ATOM     19  H   UNL     1       7.190  11.194  42.503  0.00  0.00    +0.000 HD
ENDBRANCH  13  18
BRANCH  17  20
ATOM     20  O   UNL     1       5.520  15.467  39.625  0.00  0.00    +0.000 OA
ATOM     21  H   UNL     1       4.601  15.302  39.874  0.00  0.00    +0.000 HD
ENDBRANCH  17  20
BRANCH   9  22
ATOM     22  O   UNL     1      11.221  12.886  44.115  0.00  0.00    +0.000 OA
ATOM     23  H   UNL     1      10.876  11.966  44.218  0.00  0.00    +0.000 HD
ENDBRANCH   9  22
ENDBRANCH   1  11
BRANCH   4  24
ATOM     24  O   UNL     1      14.828  16.333  41.797  0.00  0.00    +0.000 OA
ATOM     25  H   UNL     1      15.404  15.563  41.930  0.00  0.00    +0.000 HD
ENDBRANCH   4  24
BRANCH   6  26
ATOM     26  O   UNL     1      15.081  17.611  44.193  0.00  0.00    +0.000 OA
BRANCH  26  27
ATOM     27  C   UNL     1      15.855  17.397  45.399  0.00  0.00    +0.000 C 
ATOM     28  O   UNL     1      16.022  15.979  45.675  0.00  0.00    +0.000 OA
ATOM     29  C   UNL     1      17.251  18.049  45.222  0.00  0.00    +0.000 C 
ATOM     30  C   UNL     1      16.706  15.221  44.643  0.00  0.00    +0.000 C 
ATOM     31  C   UNL     1      18.100  17.281  44.175  0.00  0.00    +0.000 C 
ATOM     32  C   UNL     1      18.149  15.766  44.499  0.00  0.00    +0.000 C 
BRANCH  29  33
ATOM     33  O   UNL     1      17.924  18.069  46.486  0.00  0.00    +0.000 OA
ATOM     34  H   UNL     1      18.445  18.890  46.542  0.00  0.00    +0.000 HD
ENDBRANCH  29  33
BRANCH  32  35
ATOM     35  O   UNL     1      18.839  15.062  43.458  0.00  0.00    +0.000 OA
ATOM     36  H   UNL     1      19.463  14.434  43.862  0.00  0.00    +0.000 HD
ENDBRANCH  32  35
BRANCH  31  37
ATOM     37  O   UNL     1      19.428  17.823  44.139  0.00  0.00    +0.000 OA
ATOM     38  H   UNL     1      19.515  18.368  43.333  0.00  0.00    +0.000 HD
ENDBRANCH  31  37
BRANCH  30  39
ATOM     39  C   UNL     1      16.656  13.725  45.025  0.00  0.00    +0.000 C 
BRANCH  39  40
ATOM     40  O   UNL     1      16.670  13.558  46.445  0.00  0.00    +0.000 OA
ATOM     41  H   UNL     1      15.995  14.148  46.822  0.00  0.00    +0.000 HD
ENDBRANCH  39  40
ENDBRANCH  30  39
ENDBRANCH  26  27
ENDBRANCH   6  26
TORSDOF 12
ENDMDL
MODEL 10
REMARK VINA RESULT:    -6.525      1.887      2.895
REMARK INTER + INTRA:         -10.249
REMARK INTER:                  -9.180
REMARK INTRA:                  -1.069
REMARK UNBOUND:                -0.671
REMARK  Name = opt55.pdb
REMARK  12 active torsions:
REMARK  status: ('A' for Active; 'I' for Inactive)
REMARK    1  A    between atoms: C_3  and  O_5
REMARK    2  A    between atoms: C_6  and  C_10
REMARK    3  A    between atoms: C_8  and  O_12
REMARK    4  A    between atoms: C_16  and  O_19
REMARK    5  A    between atoms: C_17  and  O_20
REMARK    6  A    between atoms: C_21  and  O_22
REMARK    7  A    between atoms: O_22  and  C_23
REMARK    8  A    between atoms: C_25  and  O_27
REMARK    9  A    between atoms: C_26  and  C_30
REMARK   10  A    between atoms: C_28  and  O_31
REMARK   11  A    between atoms: C_29  and  O_32
REMARK   12  A    between atoms: C_30  and  O_33
REMARK                            x       y       z     vdW  Elec       q    Type
REMARK                         _______ _______ _______ _____ _____    ______ ____
ROOT
ATOM      1  C   UNL     1      13.630  14.633  43.518  0.00  0.00    +0.000 A 
ATOM      2  C   UNL     1      13.191  13.562  42.719  0.00  0.00    +0.000 A 
ATOM      3  C   UNL     1      12.776  15.111  44.530  0.00  0.00    +0.000 A 
ATOM      4  C   UNL     1      11.921  13.011  42.904  0.00  0.00    +0.000 A 
ATOM      5  C   UNL     1      11.501  14.565  44.700  0.00  0.00    +0.000 A 
ATOM      6  C   UNL     1      11.057  13.530  43.871  0.00  0.00    +0.000 A 
ENDROOT
BRANCH   1  11
ATOM      7  O   UNL     1      16.542  17.452  41.167  0.00  0.00    +0.000 OA
ATOM      8  C   UNL     1      16.374  16.617  42.038  0.00  0.00    +0.000 A 
ATOM      9  C   UNL     1      15.034  16.093  42.411  0.00  0.00    +0.000 A 
ATOM     10  C   UNL     1      17.470  16.031  42.831  0.00  0.00    +0.000 A 
ATOM     11  C   UNL     1      14.946  15.317  43.235  0.00  0.00    +0.000 A 
ATOM     12  C   UNL     1      17.084  15.120  43.793  0.00  0.00    +0.000 A 
ATOM     13  C   UNL     1      18.879  16.327  42.691  0.00  0.00    +0.000 A 
ATOM     14  O   UNL     1      15.719  14.852  43.915  0.00  0.00    +0.000 OA
ATOM     15  C   UNL     1      18.091  14.490  44.628  0.00  0.00    +0.000 A 
ATOM     16  C   UNL     1      19.830  15.712  43.491  0.00  0.00    +0.000 A 
ATOM     17  C   UNL     1      19.448  14.796  44.459  0.00  0.00    +0.000 A 
BRANCH  13  18
ATOM     18  O   UNL     1      19.300  17.219  41.758  0.00  0.00    +0.000 OA
ATOM     19  H   UNL     1      20.224  16.988  41.558  0.00  0.00    +0.000 HD
ENDBRANCH  13  18
BRANCH  17  20
ATOM     20  O   UNL     1      20.446  14.231  45.205  0.00  0.00    +0.000 OA
ATOM     21  H   UNL     1      21.095  13.744  44.680  0.00  0.00    +0.000 HD
ENDBRANCH  17  20
BRANCH   9  22
ATOM     22  O   UNL     1      14.059  16.698  41.677  0.00  0.00    +0.000 OA
ATOM     23  H   UNL     1      13.334  16.038  41.553  0.00  0.00    +0.000 HD
ENDBRANCH   9  22
ENDBRANCH   1  11
BRANCH   4  24
ATOM     24  O   UNL     1      11.504  11.976  42.114  0.00  0.00    +0.000 OA
ATOM     25  H   UNL     1      11.187  11.239  42.659  0.00  0.00    +0.000 HD
ENDBRANCH   4  24
BRANCH   6  26
ATOM     26  O   UNL     1       9.773  13.004  43.953  0.00  0.00    +0.000 OA
BRANCH  26  27
ATOM     27  C   UNL     1       8.562  13.785  44.103  0.00  0.00    +0.000 C 
ATOM     28  O   UNL     1       8.261  14.529  42.891  0.00  0.00    +0.000 OA
ATOM     29  C   UNL     1       7.383  12.827  44.419  0.00  0.00    +0.000 C 
ATOM     30  C   UNL     1       8.050  13.723  41.702  0.00  0.00    +0.000 C 
ATOM     31  C   UNL     1       7.030  11.949  43.191  0.00  0.00    +0.000 C 
ATOM     32  C   UNL     1       6.812  12.819  41.927  0.00  0.00    +0.000 C 
BRANCH  29  33
ATOM     33  O   UNL     1       6.245  13.600  44.820  0.00  0.00    +0.000 OA
ATOM     34  H   UNL     1       6.562  14.455  45.162  0.00  0.00    +0.000 HD
ENDBRANCH  29  33
BRANCH  32  35
ATOM     35  O   UNL     1       6.602  11.981  40.782  0.00  0.00    +0.000 OA
ATOM     36  H   UNL     1       7.153  11.185  40.868  0.00  0.00    +0.000 HD
ENDBRANCH  32  35
BRANCH  31  37
ATOM     37  O   UNL     1       5.851  11.180  43.471  0.00  0.00    +0.000 OA
ATOM     38  H   UNL     1       5.395  11.583  44.234  0.00  0.00    +0.000 HD
ENDBRANCH  31  37
BRANCH  30  39
ATOM     39  C   UNL     1       7.901  14.672  40.492  0.00  0.00    +0.000 C 
BRANCH  39  40
ATOM     40  O   UNL     1       6.547  14.708  40.034  0.00  0.00    +0.000 OA
ATOM     41  H   UNL     1       6.379  13.893  39.530  0.00  0.00    +0.000 HD
ENDBRANCH  39  40
ENDBRANCH  30  39
ENDBRANCH  26  27
ENDBRANCH   6  26
TORSDOF 12
ENDMDL
MODEL 11
REMARK VINA RESULT:    -6.447      2.228      9.545
REMARK INTER + INTRA:         -10.134
REMARK INTER:                  -9.568
REMARK INTRA:                  -0.566
REMARK UNBOUND:                -0.671
REMARK  Name = opt55.pdb
REMARK  12 active torsions:
REMARK  status: ('A' for Active; 'I' for Inactive)
REMARK    1  A    between atoms: C_3  and  O_5
REMARK    2  A    between atoms: C_6  and  C_10
REMARK    3  A    between atoms: C_8  and  O_12
REMARK    4  A    between atoms: C_16  and  O_19
REMARK    5  A    between atoms: C_17  and  O_20
REMARK    6  A    between atoms: C_21  and  O_22
REMARK    7  A    between atoms: O_22  and  C_23
REMARK    8  A    between atoms: C_25  and  O_27
REMARK    9  A    between atoms: C_26  and  C_30
REMARK   10  A    between atoms: C_28  and  O_31
REMARK   11  A    between atoms: C_29  and  O_32
REMARK   12  A    between atoms: C_30  and  O_33
REMARK                            x       y       z     vdW  Elec       q    Type
REMARK                         _______ _______ _______ _____ _____    ______ ____
ROOT
ATOM      1  C   UNL     1      11.877  13.452  43.361  0.00  0.00    +0.000 A 
ATOM      2  C   UNL     1      12.634  13.370  44.544  0.00  0.00    +0.000 A 
ATOM      3  C   UNL     1      12.553  13.423  42.126  0.00  0.00    +0.000 A 
ATOM      4  C   UNL     1      14.029  13.299  44.491  0.00  0.00    +0.000 A 
ATOM      5  C   UNL     1      13.948  13.365  42.082  0.00  0.00    +0.000 A 
ATOM      6  C   UNL     1      14.694  13.329  43.263  0.00  0.00    +0.000 A 
ENDROOT
BRANCH   1  11
ATOM      7  O   UNL     1       7.949  15.902  44.085  0.00  0.00    +0.000 OA
ATOM      8  C   UNL     1       8.485  14.832  43.854  0.00  0.00    +0.000 A 
ATOM      9  C   UNL     1       9.947  14.689  43.630  0.00  0.00    +0.000 A 
ATOM     10  C   UNL     1       7.754  13.555  43.761  0.00  0.00    +0.000 A 
ATOM     11  C   UNL     1      10.382  13.663  43.416  0.00  0.00    +0.000 A 
ATOM     12  C   UNL     1       8.526  12.451  43.464  0.00  0.00    +0.000 A 
ATOM     13  C   UNL     1       6.331  13.369  43.945  0.00  0.00    +0.000 A 
ATOM     14  O   UNL     1       9.896  12.652  43.285  0.00  0.00    +0.000 OA
ATOM     15  C   UNL     1       7.897  11.147  43.347  0.00  0.00    +0.000 A 
ATOM     16  C   UNL     1       5.746  12.116  43.838  0.00  0.00    +0.000 A 
ATOM     17  C   UNL     1       6.516  11.003  43.540  0.00  0.00    +0.000 A 
BRANCH  13  18
ATOM     18  O   UNL     1       5.536  14.430  44.236  0.00  0.00    +0.000 OA
ATOM     19  H   UNL     1       5.688  15.085  43.532  0.00  0.00    +0.000 HD
ENDBRANCH  13  18
BRANCH  17  20
ATOM     20  O   UNL     1       5.865   9.804  43.454  0.00  0.00    +0.000 OA
ATOM     21  H   UNL     1       5.909   9.279  44.265  0.00  0.00    +0.000 HD
ENDBRANCH  17  20
BRANCH   9  22
ATOM     22  O   UNL     1      10.563  15.902  43.687  0.00  0.00    +0.000 OA
ATOM     23  H   UNL     1      11.242  15.853  44.404  0.00  0.00    +0.000 HD
ENDBRANCH   9  22
ENDBRANCH   1  11
BRANCH   4  24
ATOM     24  O   UNL     1      14.752  13.229  45.649  0.00  0.00    +0.000 OA
ATOM     25  H   UNL     1      15.547  13.781  45.587  0.00  0.00    +0.000 HD
ENDBRANCH   4  24
BRANCH   6  26
ATOM     26  O   UNL     1      16.084  13.344  43.272  0.00  0.00    +0.000 OA
BRANCH  26  27
ATOM     27  C   UNL     1      16.900  14.394  43.847  0.00  0.00    +0.000 C 
ATOM     28  O   UNL     1      18.239  14.393  43.280  0.00  0.00    +0.000 OA
ATOM     29  C   UNL     1      16.229  15.764  43.565  0.00  0.00    +0.000 C 
ATOM     30  C   UNL     1      18.307  14.600  41.844  0.00  0.00    +0.000 C 
ATOM     31  C   UNL     1      16.294  16.119  42.057  0.00  0.00    +0.000 C 
ATOM     32  C   UNL     1      17.742  16.006  41.517  0.00  0.00    +0.000 C 
BRANCH  29  33
ATOM     33  O   UNL     1      16.882  16.776  44.340  0.00  0.00    +0.000 OA
ATOM     34  H   UNL     1      17.248  16.358  45.141  0.00  0.00    +0.000 HD
ENDBRANCH  29  33
BRANCH  32  35
ATOM     35  O   UNL     1      17.759  16.225  40.101  0.00  0.00    +0.000 OA
ATOM     36  H   UNL     1      17.891  15.372  39.651  0.00  0.00    +0.000 HD
ENDBRANCH  32  35
BRANCH  31  37
ATOM     37  O   UNL     1      15.792  17.448  41.852  0.00  0.00    +0.000 OA
ATOM     38  H   UNL     1      16.192  17.805  41.036  0.00  0.00    +0.000 HD
ENDBRANCH  31  37
BRANCH  30  39
ATOM     39  C   UNL     1      19.773  14.413  41.395  0.00  0.00    +0.000 C 
BRANCH  39  40
ATOM     40  O   UNL     1      19.876  14.419  39.969  0.00  0.00    +0.000 OA
ATOM     41  H   UNL     1      19.521  15.267  39.647  0.00  0.00    +0.000 HD
ENDBRANCH  39  40
ENDBRANCH  30  39
ENDBRANCH  26  27
ENDBRANCH   6  26
TORSDOF 12
ENDMDL
MODEL 12
REMARK VINA RESULT:    -6.344      2.153      3.834
REMARK INTER + INTRA:          -9.982
REMARK INTER:                  -9.499
REMARK INTRA:                  -0.484
REMARK UNBOUND:                -0.671
REMARK  Name = opt55.pdb
REMARK  12 active torsions:
REMARK  status: ('A' for Active; 'I' for Inactive)
REMARK    1  A    between atoms: C_3  and  O_5
REMARK    2  A    between atoms: C_6  and  C_10
REMARK    3  A    between atoms: C_8  and  O_12
REMARK    4  A    between atoms: C_16  and  O_19
REMARK    5  A    between atoms: C_17  and  O_20
REMARK    6  A    between atoms: C_21  and  O_22
REMARK    7  A    between atoms: O_22  and  C_23
REMARK    8  A    between atoms: C_25  and  O_27
REMARK    9  A    between atoms: C_26  and  C_30
REMARK   10  A    between atoms: C_28  and  O_31
REMARK   11  A    between atoms: C_29  and  O_32
REMARK   12  A    between atoms: C_30  and  O_33
REMARK                            x       y       z     vdW  Elec       q    Type
REMARK                         _______ _______ _______ _____ _____    ______ ____
ROOT
ATOM      1  C   UNL     1      13.793  14.246  43.581  0.00  0.00    +0.000 A 
ATOM      2  C   UNL     1      13.556  12.860  43.523  0.00  0.00    +0.000 A 
ATOM      3  C   UNL     1      12.688  15.112  43.690  0.00  0.00    +0.000 A 
ATOM      4  C   UNL     1      12.251  12.361  43.537  0.00  0.00    +0.000 A 
ATOM      5  C   UNL     1      11.386  14.607  43.689  0.00  0.00    +0.000 A 
ATOM      6  C   UNL     1      11.160  13.231  43.587  0.00  0.00    +0.000 A 
ENDROOT
BRANCH   1  11
ATOM      7  O   UNL     1      18.102  14.478  41.757  0.00  0.00    +0.000 OA
ATOM      8  C   UNL     1      17.306  14.843  42.604  0.00  0.00    +0.000 A 
ATOM      9  C   UNL     1      15.882  14.415  42.616  0.00  0.00    +0.000 A 
ATOM     10  C   UNL     1      17.649  15.755  43.710  0.00  0.00    +0.000 A 
ATOM     11  C   UNL     1      15.191  14.796  43.432  0.00  0.00    +0.000 A 
ATOM     12  C   UNL     1      16.608  16.080  44.555  0.00  0.00    +0.000 A 
ATOM     13  C   UNL     1      18.952  16.327  43.973  0.00  0.00    +0.000 A 
ATOM     14  O   UNL     1      15.358  15.522  44.281  0.00  0.00    +0.000 OA
ATOM     15  C   UNL     1      16.846  16.975  45.674  0.00  0.00    +0.000 A 
ATOM     16  C   UNL     1      19.165  17.175  45.050  0.00  0.00    +0.000 A 
ATOM     17  C   UNL     1      18.123  17.504  45.902  0.00  0.00    +0.000 A 
BRANCH  13  18
ATOM     18  O   UNL     1      20.002  16.035  43.164  0.00  0.00    +0.000 OA
ATOM     19  H   UNL     1      19.981  16.690  42.444  0.00  0.00    +0.000 HD
ENDBRANCH  13  18
BRANCH  17  20
ATOM     20  O   UNL     1      18.416  18.344  46.942  0.00  0.00    +0.000 OA
ATOM     21  H   UNL     1      17.655  18.850  47.257  0.00  0.00    +0.000 HD
ENDBRANCH  17  20
BRANCH   9  22
ATOM     22  O   UNL     1      15.613  13.610  41.552  0.00  0.00    +0.000 OA
ATOM     23  H   UNL     1      16.478  13.379  41.133  0.00  0.00    +0.000 HD
ENDBRANCH   9  22
ENDBRANCH   1  11
BRANCH   4  24
ATOM     24  O   UNL     1      12.036  11.013  43.471  0.00  0.00    +0.000 OA
ATOM     25  H   UNL     1      11.905  10.734  42.551  0.00  0.00    +0.000 HD
ENDBRANCH   4  24
BRANCH   6  26
ATOM     26  O   UNL     1       9.884  12.686  43.509  0.00  0.00    +0.000 OA
BRANCH  26  27
ATOM     27  C   UNL     1       8.994  12.811  42.373  0.00  0.00    +0.000 C 
ATOM     28  O   UNL     1       8.041  11.713  42.325  0.00  0.00    +0.000 OA
ATOM     29  C   UNL     1       8.221  14.152  42.485  0.00  0.00    +0.000 C 
ATOM     30  C   UNL     1       7.170  11.595  43.480  0.00  0.00    +0.000 C 
ATOM     31  C   UNL     1       7.211  14.119  43.661  0.00  0.00    +0.000 C 
ATOM     32  C   UNL     1       6.296  12.871  43.578  0.00  0.00    +0.000 C 
BRANCH  29  33
ATOM     33  O   UNL     1       7.537  14.405  41.252  0.00  0.00    +0.000 OA
ATOM     34  H   UNL     1       8.202  14.467  40.542  0.00  0.00    +0.000 HD
ENDBRANCH  29  33
BRANCH  32  35
ATOM     35  O   UNL     1       5.451  12.801  44.734  0.00  0.00    +0.000 OA
ATOM     36  H   UNL     1       5.458  13.663  45.183  0.00  0.00    +0.000 HD
ENDBRANCH  32  35
BRANCH  31  37
ATOM     37  O   UNL     1       6.419  15.316  43.650  0.00  0.00    +0.000 OA
ATOM     38  H   UNL     1       5.962  15.390  44.509  0.00  0.00    +0.000 HD
ENDBRANCH  31  37
BRANCH  30  39
ATOM     39  C   UNL     1       6.341  10.300  43.334  0.00  0.00    +0.000 C 
BRANCH  39  40
ATOM     40  O   UNL     1       5.450  10.134  44.439  0.00  0.00    +0.000 OA
ATOM     41  H   UNL     1       5.532   9.217  44.754  0.00  0.00    +0.000 HD
ENDBRANCH  39  40
ENDBRANCH  30  39
ENDBRANCH  26  27
ENDBRANCH   6  26
TORSDOF 12
ENDMDL
MODEL 13
REMARK VINA RESULT:    -6.335      1.977      9.611
REMARK INTER + INTRA:          -9.969
REMARK INTER:                  -9.086
REMARK INTRA:                  -0.883
REMARK UNBOUND:                -0.671
REMARK  Name = opt55.pdb
REMARK  12 active torsions:
REMARK  status: ('A' for Active; 'I' for Inactive)
REMARK    1  A    between atoms: C_3  and  O_5
REMARK    2  A    between atoms: C_6  and  C_10
REMARK    3  A    between atoms: C_8  and  O_12
REMARK    4  A    between atoms: C_16  and  O_19
REMARK    5  A    between atoms: C_17  and  O_20
REMARK    6  A    between atoms: C_21  and  O_22
REMARK    7  A    between atoms: O_22  and  C_23
REMARK    8  A    between atoms: C_25  and  O_27
REMARK    9  A    between atoms: C_26  and  C_30
REMARK   10  A    between atoms: C_28  and  O_31
REMARK   11  A    between atoms: C_29  and  O_32
REMARK   12  A    between atoms: C_30  and  O_33
REMARK                            x       y       z     vdW  Elec       q    Type
REMARK                         _______ _______ _______ _____ _____    ______ ____
ROOT
ATOM      1  C   UNL     1      12.414  13.644  43.792  0.00  0.00    +0.000 A 
ATOM      2  C   UNL     1      13.189  13.837  42.633  0.00  0.00    +0.000 A 
ATOM      3  C   UNL     1      13.076  13.472  45.022  0.00  0.00    +0.000 A 
ATOM      4  C   UNL     1      14.584  13.821  42.701  0.00  0.00    +0.000 A 
ATOM      5  C   UNL     1      14.472  13.443  45.079  0.00  0.00    +0.000 A 
ATOM      6  C   UNL     1      15.233  13.592  43.916  0.00  0.00    +0.000 A 
ENDROOT
BRANCH   1  11
ATOM      7  O   UNL     1       8.361  11.491  42.851  0.00  0.00    +0.000 OA
ATOM      8  C   UNL     1       8.955  12.508  43.161  0.00  0.00    +0.000 A 
ATOM      9  C   UNL     1      10.420  12.547  43.413  0.00  0.00    +0.000 A 
ATOM     10  C   UNL     1       8.300  13.818  43.332  0.00  0.00    +0.000 A 
ATOM     11  C   UNL     1      10.911  13.528  43.703  0.00  0.00    +0.000 A 
ATOM     12  C   UNL     1       9.131  14.851  43.714  0.00  0.00    +0.000 A 
ATOM     13  C   UNL     1       6.894  14.102  43.142  0.00  0.00    +0.000 A 
ATOM     14  O   UNL     1      10.483  14.555  43.896  0.00  0.00    +0.000 OA
ATOM     15  C   UNL     1       8.579  16.179  43.911  0.00  0.00    +0.000 A 
ATOM     16  C   UNL     1       6.382  15.378  43.327  0.00  0.00    +0.000 A 
ATOM     17  C   UNL     1       7.213  16.419  43.710  0.00  0.00    +0.000 A 
BRANCH  13  18
ATOM     18  O   UNL     1       6.042  13.113  42.769  0.00  0.00    +0.000 OA
ATOM     19  H   UNL     1       5.694  13.368  41.897  0.00  0.00    +0.000 HD
ENDBRANCH  13  18
BRANCH  17  20
ATOM     20  O   UNL     1       6.632  17.647  43.869  0.00  0.00    +0.000 OA
ATOM     21  H   UNL     1       7.203  18.383  43.608  0.00  0.00    +0.000 HD
ENDBRANCH  17  20
BRANCH   9  22
ATOM     22  O   UNL     1      10.963  11.306  43.282  0.00  0.00    +0.000 OA
ATOM     23  H   UNL     1      10.229  10.652  43.384  0.00  0.00    +0.000 HD
ENDBRANCH   9  22
ENDBRANCH   1  11
BRANCH   4  24
ATOM     24  O   UNL     1      15.324  14.001  41.565  0.00  0.00    +0.000 OA
ATOM     25  H   UNL     1      14.897  14.646  40.980  0.00  0.00    +0.000 HD
ENDBRANCH   4  24
BRANCH   6  26
ATOM     26  O   UNL     1      16.620  13.498  43.911  0.00  0.00    +0.000 OA
BRANCH  26  27
ATOM     27  C   UNL     1      17.514  14.369  44.646  0.00  0.00    +0.000 C 
ATOM     28  O   UNL     1      18.854  14.348  44.081  0.00  0.00    +0.000 OA
ATOM     29  C   UNL     1      16.962  15.818  44.592  0.00  0.00    +0.000 C 
ATOM     30  C   UNL     1      18.952  14.779  42.698  0.00  0.00    +0.000 C 
ATOM     31  C   UNL     1      17.070  16.406  43.161  0.00  0.00    +0.000 C 
ATOM     32  C   UNL     1      18.509  16.261  42.605  0.00  0.00    +0.000 C 
BRANCH  29  33
ATOM     33  O   UNL     1      17.689  16.633  45.519  0.00  0.00    +0.000 OA
ATOM     34  H   UNL     1      17.047  17.144  46.044  0.00  0.00    +0.000 HD
ENDBRANCH  29  33
BRANCH  32  35
ATOM     35  O   UNL     1      18.559  16.704  41.243  0.00  0.00    +0.000 OA
ATOM     36  H   UNL     1      19.162  17.464  41.179  0.00  0.00    +0.000 HD
ENDBRANCH  32  35
BRANCH  31  37
ATOM     37  O   UNL     1      16.682  17.787  43.177  0.00  0.00    +0.000 OA
ATOM     38  H   UNL     1      17.491  18.333  43.165  0.00  0.00    +0.000 HD
ENDBRANCH  31  37
BRANCH  30  39
ATOM     39  C   UNL     1      20.402  14.545  42.218  0.00  0.00    +0.000 C 
BRANCH  39  40
ATOM     40  O   UNL     1      20.450  14.367  40.800  0.00  0.00    +0.000 OA
ATOM     41  H   UNL     1      20.531  15.246  40.391  0.00  0.00    +0.000 HD
ENDBRANCH  39  40
ENDBRANCH  30  39
ENDBRANCH  26  27
ENDBRANCH   6  26
TORSDOF 12
ENDMDL
MODEL 14
REMARK VINA RESULT:    -6.283      2.548      3.566
REMARK INTER + INTRA:          -9.893
REMARK INTER:                  -8.750
REMARK INTRA:                  -1.143
REMARK UNBOUND:                -0.671
REMARK  Name = opt55.pdb
REMARK  12 active torsions:
REMARK  status: ('A' for Active; 'I' for Inactive)
REMARK    1  A    between atoms: C_3  and  O_5
REMARK    2  A    between atoms: C_6  and  C_10
REMARK    3  A    between atoms: C_8  and  O_12
REMARK    4  A    between atoms: C_16  and  O_19
REMARK    5  A    between atoms: C_17  and  O_20
REMARK    6  A    between atoms: C_21  and  O_22
REMARK    7  A    between atoms: O_22  and  C_23
REMARK    8  A    between atoms: C_25  and  O_27
REMARK    9  A    between atoms: C_26  and  C_30
REMARK   10  A    between atoms: C_28  and  O_31
REMARK   11  A    between atoms: C_29  and  O_32
REMARK   12  A    between atoms: C_30  and  O_33
REMARK                            x       y       z     vdW  Elec       q    Type
REMARK                         _______ _______ _______ _____ _____    ______ ____
ROOT
ATOM      1  C   UNL     1      14.101  14.626  43.859  0.00  0.00    +0.000 A 
ATOM      2  C   UNL     1      13.345  15.067  42.758  0.00  0.00    +0.000 A 
ATOM      3  C   UNL     1      13.530  13.681  44.732  0.00  0.00    +0.000 A 
ATOM      4  C   UNL     1      12.043  14.602  42.558  0.00  0.00    +0.000 A 
ATOM      5  C   UNL     1      12.222  13.231  44.533  0.00  0.00    +0.000 A 
ATOM      6  C   UNL     1      11.463  13.708  43.460  0.00  0.00    +0.000 A 
ENDROOT
BRANCH   1  11
ATOM      7  O   UNL     1      18.783  14.679  44.043  0.00  0.00    +0.000 OA
ATOM      8  C   UNL     1      17.721  15.208  44.321  0.00  0.00    +0.000 A 
ATOM      9  C   UNL     1      16.409  14.682  43.862  0.00  0.00    +0.000 A 
ATOM     10  C   UNL     1      17.605  16.432  45.135  0.00  0.00    +0.000 A 
ATOM     11  C   UNL     1      15.456  15.226  44.154  0.00  0.00    +0.000 A 
ATOM     12  C   UNL     1      16.321  16.900  45.322  0.00  0.00    +0.000 A 
ATOM     13  C   UNL     1      18.699  17.165  45.736  0.00  0.00    +0.000 A 
ATOM     14  O   UNL     1      15.281  16.181  44.730  0.00  0.00    +0.000 OA
ATOM     15  C   UNL     1      16.104  18.102  46.107  0.00  0.00    +0.000 A 
ATOM     16  C   UNL     1      18.475  18.308  46.489  0.00  0.00    +0.000 A 
ATOM     17  C   UNL     1      17.187  18.783  46.680  0.00  0.00    +0.000 A 
BRANCH  13  18
ATOM     18  O   UNL     1      19.977  16.739  45.574  0.00  0.00    +0.000 OA
ATOM     19  H   UNL     1      20.535  17.353  46.083  0.00  0.00    +0.000 HD
ENDBRANCH  13  18
BRANCH  17  20
ATOM     20  O   UNL     1      17.050  19.914  47.438  0.00  0.00    +0.000 OA
ATOM     21  H   UNL     1      16.748  19.742  48.340  0.00  0.00    +0.000 HD
ENDBRANCH  17  20
BRANCH   9  22
ATOM     22  O   UNL     1      16.579  13.579  43.083  0.00  0.00    +0.000 OA
ATOM     23  H   UNL     1      16.667  13.891  42.149  0.00  0.00    +0.000 HD
ENDBRANCH   9  22
ENDBRANCH   1  11
BRANCH   4  24
ATOM     24  O   UNL     1      11.317  15.046  41.487  0.00  0.00    +0.000 OA
ATOM     25  H   UNL     1      10.506  14.524  41.387  0.00  0.00    +0.000 HD
ENDBRANCH   4  24
BRANCH   6  26
ATOM     26  O   UNL     1      10.136  13.346  43.262  0.00  0.00    +0.000 OA
BRANCH  26  27
ATOM     27  C   UNL     1       8.990  14.103  43.724  0.00  0.00    +0.000 C 
ATOM     28  O   UNL     1       8.377  14.848  42.637  0.00  0.00    +0.000 OA
ATOM     29  C   UNL     1       7.947  13.121  44.320  0.00  0.00    +0.000 C 
ATOM     30  C   UNL     1       7.883  14.045  41.532  0.00  0.00    +0.000 C 
ATOM     31  C   UNL     1       7.307  12.243  43.214  0.00  0.00    +0.000 C 
ATOM     32  C   UNL     1       6.759  13.116  42.056  0.00  0.00    +0.000 C 
BRANCH  29  33
ATOM     33  O   UNL     1       6.936  13.870  45.006  0.00  0.00    +0.000 OA
ATOM     34  H   UNL     1       7.283  14.763  45.180  0.00  0.00    +0.000 HD
ENDBRANCH  29  33
BRANCH  32  35
ATOM     35  O   UNL     1       6.278  12.281  40.995  0.00  0.00    +0.000 OA
ATOM     36  H   UNL     1       5.514  11.771  41.315  0.00  0.00    +0.000 HD
ENDBRANCH  32  35
BRANCH  31  37
ATOM     37  O   UNL     1       6.253  11.450  43.778  0.00  0.00    +0.000 OA
ATOM     38  H   UNL     1       6.633  10.887  44.479  0.00  0.00    +0.000 HD
ENDBRANCH  31  37
BRANCH  30  39
ATOM     39  C   UNL     1       7.413  14.997  40.411  0.00  0.00    +0.000 C 
BRANCH  39  40
ATOM     40  O   UNL     1       6.020  14.822  40.141  0.00  0.00    +0.000 OA
ATOM     41  H   UNL     1       5.554  15.619  40.449  0.00  0.00    +0.000 HD
ENDBRANCH  39  40
ENDBRANCH  30  39
ENDBRANCH  26  27
ENDBRANCH   6  26
TORSDOF 12
ENDMDL
MODEL 15
REMARK VINA RESULT:    -6.234      2.264      9.988
REMARK INTER + INTRA:          -9.821
REMARK INTER:                  -8.895
REMARK INTRA:                  -0.926
REMARK UNBOUND:                -0.671
REMARK  Name = opt55.pdb
REMARK  12 active torsions:
REMARK  status: ('A' for Active; 'I' for Inactive)
REMARK    1  A    between atoms: C_3  and  O_5
REMARK    2  A    between atoms: C_6  and  C_10
REMARK    3  A    between atoms: C_8  and  O_12
REMARK    4  A    between atoms: C_16  and  O_19
REMARK    5  A    between atoms: C_17  and  O_20
REMARK    6  A    between atoms: C_21  and  O_22
REMARK    7  A    between atoms: O_22  and  C_23
REMARK    8  A    between atoms: C_25  and  O_27
REMARK    9  A    between atoms: C_26  and  C_30
REMARK   10  A    between atoms: C_28  and  O_31
REMARK   11  A    between atoms: C_29  and  O_32
REMARK   12  A    between atoms: C_30  and  O_33
REMARK                            x       y       z     vdW  Elec       q    Type
REMARK                         _______ _______ _______ _____ _____    ______ ____
ROOT
ATOM      1  C   UNL     1      11.801  13.866  43.541  0.00  0.00    +0.000 A 
ATOM      2  C   UNL     1      12.674  13.462  44.568  0.00  0.00    +0.000 A 
ATOM      3  C   UNL     1      12.320  14.631  42.479  0.00  0.00    +0.000 A 
ATOM      4  C   UNL     1      14.018  13.844  44.549  0.00  0.00    +0.000 A 
ATOM      5  C   UNL     1      13.662  15.021  42.475  0.00  0.00    +0.000 A 
ATOM      6  C   UNL     1      14.511  14.652  43.522  0.00  0.00    +0.000 A 
ENDROOT
BRANCH   1  11
ATOM      7  O   UNL     1       7.933  11.299  42.904  0.00  0.00    +0.000 OA
ATOM      8  C   UNL     1       8.442  12.356  43.233  0.00  0.00    +0.000 A 
ATOM      9  C   UNL     1       9.913  12.559  43.307  0.00  0.00    +0.000 A 
ATOM     10  C   UNL     1       7.670  13.556  43.603  0.00  0.00    +0.000 A 
ATOM     11  C   UNL     1      10.323  13.568  43.625  0.00  0.00    +0.000 A 
ATOM     12  C   UNL     1       8.420  14.652  43.975  0.00  0.00    +0.000 A 
ATOM     13  C   UNL     1       6.228  13.674  43.612  0.00  0.00    +0.000 A 
ATOM     14  O   UNL     1       9.809  14.516  43.963  0.00  0.00    +0.000 OA
ATOM     15  C   UNL     1       7.750  15.882  44.360  0.00  0.00    +0.000 A 
ATOM     16  C   UNL     1       5.602  14.858  43.976  0.00  0.00    +0.000 A 
ATOM     17  C   UNL     1       6.351  15.962  44.350  0.00  0.00    +0.000 A 
BRANCH  13  18
ATOM     18  O   UNL     1       5.453  12.618  43.256  0.00  0.00    +0.000 OA
ATOM     19  H   UNL     1       5.772  12.329  42.383  0.00  0.00    +0.000 HD
ENDBRANCH  13  18
BRANCH  17  20
ATOM     20  O   UNL     1       5.659  17.092  44.692  0.00  0.00    +0.000 OA
ATOM     21  H   UNL     1       6.080  17.608  45.392  0.00  0.00    +0.000 HD
ENDBRANCH  17  20
BRANCH   9  22
ATOM     22  O   UNL     1      10.574  11.410  42.996  0.00  0.00    +0.000 OA
ATOM     23  H   UNL     1      10.395  11.218  42.043  0.00  0.00    +0.000 HD
ENDBRANCH   9  22
ENDBRANCH   1  11
BRANCH   4  24
ATOM     24  O   UNL     1      14.853  13.452  45.558  0.00  0.00    +0.000 OA
ATOM     25  H   UNL     1      15.676  13.088  45.196  0.00  0.00    +0.000 HD
ENDBRANCH   4  24
BRANCH   6  26
ATOM     26  O   UNL     1      15.833  15.075  43.599  0.00  0.00    +0.000 OA
BRANCH  26  27
ATOM     27  C   UNL     1      16.435  16.080  42.746  0.00  0.00    +0.000 C 
ATOM     28  O   UNL     1      17.375  16.907  43.486  0.00  0.00    +0.000 OA
ATOM     29  C   UNL     1      17.183  15.372  41.586  0.00  0.00    +0.000 C 
ATOM     30  C   UNL     1      18.491  16.196  44.085  0.00  0.00    +0.000 C 
ATOM     31  C   UNL     1      18.437  14.620  42.104  0.00  0.00    +0.000 C 
ATOM     32  C   UNL     1      19.335  15.554  42.955  0.00  0.00    +0.000 C 
BRANCH  29  33
ATOM     33  O   UNL     1      17.559  16.346  40.606  0.00  0.00    +0.000 OA
ATOM     34  H   UNL     1      17.895  17.133  41.071  0.00  0.00    +0.000 HD
ENDBRANCH  29  33
BRANCH  32  35
ATOM     35  O   UNL     1      20.424  14.811  43.518  0.00  0.00    +0.000 OA
ATOM     36  H   UNL     1      21.072  14.620  42.818  0.00  0.00    +0.000 HD
ENDBRANCH  32  35
BRANCH  31  37
ATOM     37  O   UNL     1      19.179  14.097  40.993  0.00  0.00    +0.000 OA
ATOM     38  H   UNL     1      18.789  14.449  40.171  0.00  0.00    +0.000 HD
ENDBRANCH  31  37
BRANCH  30  39
ATOM     39  C   UNL     1      19.291  17.191  44.953  0.00  0.00    +0.000 C 
BRANCH  39  40
ATOM     40  O   UNL     1      20.407  17.718  44.232  0.00  0.00    +0.000 OA
ATOM     41  H   UNL     1      20.064  18.317  43.546  0.00  0.00    +0.000 HD
ENDBRANCH  39  40
ENDBRANCH  30  39
ENDBRANCH  26  27
ENDBRANCH   6  26
TORSDOF 12
ENDMDL
MODEL 16
REMARK VINA RESULT:    -6.153      2.245      3.777
REMARK INTER + INTRA:          -9.701
REMARK INTER:                  -8.876
REMARK INTRA:                  -0.826
REMARK UNBOUND:                -0.671
REMARK  Name = opt55.pdb
REMARK  12 active torsions:
REMARK  status: ('A' for Active; 'I' for Inactive)
REMARK    1  A    between atoms: C_3  and  O_5
REMARK    2  A    between atoms: C_6  and  C_10
REMARK    3  A    between atoms: C_8  and  O_12
REMARK    4  A    between atoms: C_16  and  O_19
REMARK    5  A    between atoms: C_17  and  O_20
REMARK    6  A    between atoms: C_21  and  O_22
REMARK    7  A    between atoms: O_22  and  C_23
REMARK    8  A    between atoms: C_25  and  O_27
REMARK    9  A    between atoms: C_26  and  C_30
REMARK   10  A    between atoms: C_28  and  O_31
REMARK   11  A    between atoms: C_29  and  O_32
REMARK   12  A    between atoms: C_30  and  O_33
REMARK                            x       y       z     vdW  Elec       q    Type
REMARK                         _______ _______ _______ _____ _____    ______ ____
ROOT
ATOM      1  C   UNL     1      13.526  14.775  43.435  0.00  0.00    +0.000 A 
ATOM      2  C   UNL     1      13.202  13.787  42.487  0.00  0.00    +0.000 A 
ATOM      3  C   UNL     1      12.591  15.069  44.446  0.00  0.00    +0.000 A 
ATOM      4  C   UNL     1      11.965  13.140  42.530  0.00  0.00    +0.000 A 
ATOM      5  C   UNL     1      11.351  14.427  44.474  0.00  0.00    +0.000 A 
ATOM      6  C   UNL     1      11.021  13.479  43.502  0.00  0.00    +0.000 A 
ENDROOT
BRANCH   1  11
ATOM      7  O   UNL     1      16.303  18.132  41.710  0.00  0.00    +0.000 OA
ATOM      8  C   UNL     1      16.171  17.143  42.409  0.00  0.00    +0.000 A 
ATOM      9  C   UNL     1      14.858  16.487  42.648  0.00  0.00    +0.000 A 
ATOM     10  C   UNL     1      17.288  16.481  43.108  0.00  0.00    +0.000 A 
ATOM     11  C   UNL     1      14.804  15.570  43.314  0.00  0.00    +0.000 A 
ATOM     12  C   UNL     1      16.941  15.390  43.878  0.00  0.00    +0.000 A 
ATOM     13  C   UNL     1      18.679  16.874  43.059  0.00  0.00    +0.000 A 
ATOM     14  O   UNL     1      15.593  15.030  43.916  0.00  0.00    +0.000 OA
ATOM     15  C   UNL     1      17.971  14.673  44.608  0.00  0.00    +0.000 A 
ATOM     16  C   UNL     1      19.653  16.175  43.756  0.00  0.00    +0.000 A 
ATOM     17  C   UNL     1      19.311  15.077  44.531  0.00  0.00    +0.000 A 
BRANCH  13  18
ATOM     18  O   UNL     1      19.061  17.944  42.316  0.00  0.00    +0.000 OA
ATOM     19  H   UNL     1      19.639  17.596  41.614  0.00  0.00    +0.000 HD
ENDBRANCH  13  18
BRANCH  17  20
ATOM     20  O   UNL     1      20.329  14.440  45.185  0.00  0.00    +0.000 OA
ATOM     21  H   UNL     1      20.031  13.882  45.916  0.00  0.00    +0.000 HD
ENDBRANCH  17  20
BRANCH   9  22
ATOM     22  O   UNL     1      13.861  17.163  42.013  0.00  0.00    +0.000 OA
ATOM     23  H   UNL     1      13.103  17.227  42.644  0.00  0.00    +0.000 HD
ENDBRANCH   9  22
ENDBRANCH   1  11
BRANCH   4  24
ATOM     24  O   UNL     1      11.661  12.188  41.597  0.00  0.00    +0.000 OA
ATOM     25  H   UNL     1      10.879  12.450  41.087  0.00  0.00    +0.000 HD
ENDBRANCH   4  24
BRANCH   6  26
ATOM     26  O   UNL     1       9.774  12.867  43.445  0.00  0.00    +0.000 OA
BRANCH  26  27
ATOM     27  C   UNL     1       8.793  13.074  42.399  0.00  0.00    +0.000 C 
ATOM     28  O   UNL     1       7.919  11.920  42.259  0.00  0.00    +0.000 OA
ATOM     29  C   UNL     1       7.940  14.321  42.749  0.00  0.00    +0.000 C 
ATOM     30  C   UNL     1       7.148  11.578  43.441  0.00  0.00    +0.000 C 
ATOM     31  C   UNL     1       7.027  14.049  43.973  0.00  0.00    +0.000 C 
ATOM     32  C   UNL     1       6.198  12.755  43.775  0.00  0.00    +0.000 C 
BRANCH  29  33
ATOM     33  O   UNL     1       7.148  14.683  41.611  0.00  0.00    +0.000 OA
ATOM     34  H   UNL     1       7.217  13.970  40.952  0.00  0.00    +0.000 HD
ENDBRANCH  29  33
BRANCH  32  35
ATOM     35  O   UNL     1       5.450  12.462  44.962  0.00  0.00    +0.000 OA
ATOM     36  H   UNL     1       5.279  13.291  45.441  0.00  0.00    +0.000 HD
ENDBRANCH  32  35
BRANCH  31  37
ATOM     37  O   UNL     1       6.155  15.169  44.182  0.00  0.00    +0.000 OA
ATOM     38  H   UNL     1       5.276  14.830  44.439  0.00  0.00    +0.000 HD
ENDBRANCH  31  37
BRANCH  30  39
ATOM     39  C   UNL     1       6.404  10.252  43.169  0.00  0.00    +0.000 C 
BRANCH  39  40
ATOM     40  O   UNL     1       6.132   9.557  44.388  0.00  0.00    +0.000 OA
ATOM     41  H   UNL     1       5.539  10.114  44.923  0.00  0.00    +0.000 HD
ENDBRANCH  39  40
ENDBRANCH  30  39
ENDBRANCH  26  27
ENDBRANCH   6  26
TORSDOF 12
ENDMDL
MODEL 17
REMARK VINA RESULT:    -6.104      2.278      3.666
REMARK INTER + INTRA:          -9.630
REMARK INTER:                  -9.040
REMARK INTRA:                  -0.590
REMARK UNBOUND:                -0.671
REMARK  Name = opt55.pdb
REMARK  12 active torsions:
REMARK  status: ('A' for Active; 'I' for Inactive)
REMARK    1  A    between atoms: C_3  and  O_5
REMARK    2  A    between atoms: C_6  and  C_10
REMARK    3  A    between atoms: C_8  and  O_12
REMARK    4  A    between atoms: C_16  and  O_19
REMARK    5  A    between atoms: C_17  and  O_20
REMARK    6  A    between atoms: C_21  and  O_22
REMARK    7  A    between atoms: O_22  and  C_23
REMARK    8  A    between atoms: C_25  and  O_27
REMARK    9  A    between atoms: C_26  and  C_30
REMARK   10  A    between atoms: C_28  and  O_31
REMARK   11  A    between atoms: C_29  and  O_32
REMARK   12  A    between atoms: C_30  and  O_33
REMARK                            x       y       z     vdW  Elec       q    Type
REMARK                         _______ _______ _______ _____ _____    ______ ____
ROOT
ATOM      1  C   UNL     1      13.647  14.899  43.789  0.00  0.00    +0.000 A 
ATOM      2  C   UNL     1      13.232  13.556  43.726  0.00  0.00    +0.000 A 
ATOM      3  C   UNL     1      12.664  15.906  43.815  0.00  0.00    +0.000 A 
ATOM      4  C   UNL     1      11.874  13.235  43.655  0.00  0.00    +0.000 A 
ATOM      5  C   UNL     1      11.309  15.578  43.730  0.00  0.00    +0.000 A 
ATOM      6  C   UNL     1      10.908  14.243  43.624  0.00  0.00    +0.000 A 
ENDROOT
BRANCH   1  11
ATOM      7  O   UNL     1      18.068  14.499  42.288  0.00  0.00    +0.000 OA
ATOM      8  C   UNL     1      17.269  14.995  43.063  0.00  0.00    +0.000 A 
ATOM      9  C   UNL     1      15.804  14.758  42.979  0.00  0.00    +0.000 A 
ATOM     10  C   UNL     1      17.652  15.893  44.167  0.00  0.00    +0.000 A 
ATOM     11  C   UNL     1      15.114  15.255  43.731  0.00  0.00    +0.000 A 
ATOM     12  C   UNL     1      16.606  16.381  44.923  0.00  0.00    +0.000 A 
ATOM     13  C   UNL     1      18.997  16.298  44.513  0.00  0.00    +0.000 A 
ATOM     14  O   UNL     1      15.316  15.982  44.571  0.00  0.00    +0.000 OA
ATOM     15  C   UNL     1      16.881  17.277  46.033  0.00  0.00    +0.000 A 
ATOM     16  C   UNL     1      19.245  17.149  45.580  0.00  0.00    +0.000 A 
ATOM     17  C   UNL     1      18.198  17.641  46.343  0.00  0.00    +0.000 A 
BRANCH  13  18
ATOM     18  O   UNL     1      20.054  15.843  43.792  0.00  0.00    +0.000 OA
ATOM     19  H   UNL     1      19.842  16.016  42.859  0.00  0.00    +0.000 HD
ENDBRANCH  13  18
BRANCH  17  20
ATOM     20  O   UNL     1      18.525  18.472  47.380  0.00  0.00    +0.000 OA
ATOM     21  H   UNL     1      17.854  19.143  47.566  0.00  0.00    +0.000 HD
ENDBRANCH  17  20
BRANCH   9  22
ATOM     22  O   UNL     1      15.506  13.958  41.919  0.00  0.00    +0.000 OA
ATOM     23  H   UNL     1      15.493  13.026  42.250  0.00  0.00    +0.000 HD
ENDBRANCH   9  22
ENDBRANCH   1  11
BRANCH   4  24
ATOM     24  O   UNL     1      11.485  11.926  43.586  0.00  0.00    +0.000 OA
ATOM     25  H   UNL     1      11.963  11.466  42.878  0.00  0.00    +0.000 HD
ENDBRANCH   4  24
BRANCH   6  26
ATOM     26  O   UNL     1       9.578  13.871  43.464  0.00  0.00    +0.000 OA
BRANCH  26  27
ATOM     27  C   UNL     1       8.476  14.790  43.267  0.00  0.00    +0.000 C 
ATOM     28  O   UNL     1       7.738  14.477  42.053  0.00  0.00    +0.000 OA
ATOM     29  C   UNL     1       7.519  14.694  44.484  0.00  0.00    +0.000 C 
ATOM     30  C   UNL     1       7.143  13.153  42.011  0.00  0.00    +0.000 C 
ATOM     31  C   UNL     1       6.779  13.332  44.510  0.00  0.00    +0.000 C 
ATOM     32  C   UNL     1       6.097  13.041  43.149  0.00  0.00    +0.000 C 
BRANCH  29  33
ATOM     33  O   UNL     1       6.574  15.770  44.425  0.00  0.00    +0.000 OA
ATOM     34  H   UNL     1       7.064  16.597  44.264  0.00  0.00    +0.000 HD
ENDBRANCH  29  33
BRANCH  32  35
ATOM     35  O   UNL     1       5.519  11.729  43.157  0.00  0.00    +0.000 OA
ATOM     36  H   UNL     1       6.219  11.075  42.989  0.00  0.00    +0.000 HD
ENDBRANCH  32  35
BRANCH  31  37
ATOM     37  O   UNL     1       5.804  13.332  45.562  0.00  0.00    +0.000 OA
ATOM     38  H   UNL     1       5.996  14.081  46.159  0.00  0.00    +0.000 HD
ENDBRANCH  31  37
BRANCH  30  39
ATOM     39  C   UNL     1       6.540  12.936  40.606  0.00  0.00    +0.000 C 
BRANCH  39  40
ATOM     40  O   UNL     1       6.593  11.557  40.234  0.00  0.00    +0.000 OA
ATOM     41  H   UNL     1       6.723  11.034  41.044  0.00  0.00    +0.000 HD
ENDBRANCH  39  40
ENDBRANCH  30  39
ENDBRANCH  26  27
ENDBRANCH   6  26
TORSDOF 12
ENDMDL
MODEL 18
REMARK VINA RESULT:    -6.029      2.656      3.676
REMARK INTER + INTRA:          -9.520
REMARK INTER:                  -8.496
REMARK INTRA:                  -1.024
REMARK UNBOUND:                -0.671
REMARK  Name = opt55.pdb
REMARK  12 active torsions:
REMARK  status: ('A' for Active; 'I' for Inactive)
REMARK    1  A    between atoms: C_3  and  O_5
REMARK    2  A    between atoms: C_6  and  C_10
REMARK    3  A    between atoms: C_8  and  O_12
REMARK    4  A    between atoms: C_16  and  O_19
REMARK    5  A    between atoms: C_17  and  O_20
REMARK    6  A    between atoms: C_21  and  O_22
REMARK    7  A    between atoms: O_22  and  C_23
REMARK    8  A    between atoms: C_25  and  O_27
REMARK    9  A    between atoms: C_26  and  C_30
REMARK   10  A    between atoms: C_28  and  O_31
REMARK   11  A    between atoms: C_29  and  O_32
REMARK   12  A    between atoms: C_30  and  O_33
REMARK                            x       y       z     vdW  Elec       q    Type
REMARK                         _______ _______ _______ _____ _____    ______ ____
ROOT
ATOM      1  C   UNL     1      13.181  16.138  44.188  0.00  0.00    +0.000 A 
ATOM      2  C   UNL     1      12.567  14.958  44.645  0.00  0.00    +0.000 A 
ATOM      3  C   UNL     1      12.531  16.893  43.194  0.00  0.00    +0.000 A 
ATOM      4  C   UNL     1      11.356  14.529  44.096  0.00  0.00    +0.000 A 
ATOM      5  C   UNL     1      11.328  16.450  42.640  0.00  0.00    +0.000 A 
ATOM      6  C   UNL     1      10.747  15.254  43.069  0.00  0.00    +0.000 A 
ENDROOT
BRANCH   1  11
ATOM      7  O   UNL     1      16.296  18.900  46.339  0.00  0.00    +0.000 OA
ATOM      8  C   UNL     1      16.069  17.921  45.650  0.00  0.00    +0.000 A 
ATOM      9  C   UNL     1      14.694  17.457  45.327  0.00  0.00    +0.000 A 
ATOM     10  C   UNL     1      17.122  17.074  45.060  0.00  0.00    +0.000 A 
ATOM     11  C   UNL     1      14.552  16.534  44.683  0.00  0.00    +0.000 A 
ATOM     12  C   UNL     1      16.674  15.990  44.333  0.00  0.00    +0.000 A 
ATOM     13  C   UNL     1      18.550  17.276  45.182  0.00  0.00    +0.000 A 
ATOM     14  O   UNL     1      15.293  15.810  44.232  0.00  0.00    +0.000 OA
ATOM     15  C   UNL     1      17.635  15.094  43.716  0.00  0.00    +0.000 A 
ATOM     16  C   UNL     1      19.456  16.416  44.580  0.00  0.00    +0.000 A 
ATOM     17  C   UNL     1      19.011  15.326  43.848  0.00  0.00    +0.000 A 
BRANCH  13  18
ATOM     18  O   UNL     1      19.032  18.328  45.891  0.00  0.00    +0.000 OA
ATOM     19  H   UNL     1      18.291  18.657  46.429  0.00  0.00    +0.000 HD
ENDBRANCH  13  18
BRANCH  17  20
ATOM     20  O   UNL     1      19.967  14.527  43.284  0.00  0.00    +0.000 OA
ATOM     21  H   UNL     1      20.587  14.153  43.925  0.00  0.00    +0.000 HD
ENDBRANCH  17  20
BRANCH   9  22
ATOM     22  O   UNL     1      13.766  18.250  45.930  0.00  0.00    +0.000 OA
ATOM     23  H   UNL     1      14.115  18.482  46.825  0.00  0.00    +0.000 HD
ENDBRANCH   9  22
ENDBRANCH   1  11
BRANCH   4  24
ATOM     24  O   UNL     1      10.774  13.376  44.543  0.00  0.00    +0.000 OA
ATOM     25  H   UNL     1      11.346  12.613  44.361  0.00  0.00    +0.000 HD
ENDBRANCH   4  24
BRANCH   6  26
ATOM     26  O   UNL     1       9.590  14.736  42.498  0.00  0.00    +0.000 OA
BRANCH  26  27
ATOM     27  C   UNL     1       8.290  15.373  42.531  0.00  0.00    +0.000 C 
ATOM     28  O   UNL     1       7.390  14.789  41.548  0.00  0.00    +0.000 OA
ATOM     29  C   UNL     1       7.680  15.199  43.946  0.00  0.00    +0.000 C 
ATOM     30  C   UNL     1       7.124  13.371  41.715  0.00  0.00    +0.000 C 
ATOM     31  C   UNL     1       7.300  13.720  44.215  0.00  0.00    +0.000 C 
ATOM     32  C   UNL     1       6.416  13.154  43.075  0.00  0.00    +0.000 C 
BRANCH  29  33
ATOM     33  O   UNL     1       6.523  16.037  44.066  0.00  0.00    +0.000 OA
ATOM     34  H   UNL     1       6.801  16.886  44.454  0.00  0.00    +0.000 HD
ENDBRANCH  29  33
BRANCH  32  35
ATOM     35  O   UNL     1       6.175  11.757  43.285  0.00  0.00    +0.000 OA
ATOM     36  H   UNL     1       5.325  11.517  42.876  0.00  0.00    +0.000 HD
ENDBRANCH  32  35
BRANCH  31  37
ATOM     37  O   UNL     1       6.614  13.618  45.471  0.00  0.00    +0.000 OA
ATOM     38  H   UNL     1       6.026  12.840  45.437  0.00  0.00    +0.000 HD
ENDBRANCH  31  37
BRANCH  30  39
ATOM     39  C   UNL     1       6.288  12.889  40.508  0.00  0.00    +0.000 C 
BRANCH  39  40
ATOM     40  O   UNL     1       6.548  11.513  40.222  0.00  0.00    +0.000 OA
ATOM     41  H   UNL     1       7.417  11.289  40.599  0.00  0.00    +0.000 HD
ENDBRANCH  39  40
ENDBRANCH  30  39
ENDBRANCH  26  27
ENDBRANCH   6  26
TORSDOF 12
ENDMDL
MODEL 19
REMARK VINA RESULT:    -6.020      2.557     10.004
REMARK INTER + INTRA:          -9.507
REMARK INTER:                  -8.557
REMARK INTRA:                  -0.950
REMARK UNBOUND:                -0.671
REMARK  Name = opt55.pdb
REMARK  12 active torsions:
REMARK  status: ('A' for Active; 'I' for Inactive)
REMARK    1  A    between atoms: C_3  and  O_5
REMARK    2  A    between atoms: C_6  and  C_10
REMARK    3  A    between atoms: C_8  and  O_12
REMARK    4  A    between atoms: C_16  and  O_19
REMARK    5  A    between atoms: C_17  and  O_20
REMARK    6  A    between atoms: C_21  and  O_22
REMARK    7  A    between atoms: O_22  and  C_23
REMARK    8  A    between atoms: C_25  and  O_27
REMARK    9  A    between atoms: C_26  and  C_30
REMARK   10  A    between atoms: C_28  and  O_31
REMARK   11  A    between atoms: C_29  and  O_32
REMARK   12  A    between atoms: C_30  and  O_33
REMARK                            x       y       z     vdW  Elec       q    Type
REMARK                         _______ _______ _______ _____ _____    ______ ____
ROOT
ATOM      1  C   UNL     1      12.002  15.778  43.585  0.00  0.00    +0.000 A 
ATOM      2  C   UNL     1      12.704  16.384  42.527  0.00  0.00    +0.000 A 
ATOM      3  C   UNL     1      12.728  15.343  44.711  0.00  0.00    +0.000 A 
ATOM      4  C   UNL     1      14.093  16.516  42.579  0.00  0.00    +0.000 A 
ATOM      5  C   UNL     1      14.119  15.467  44.750  0.00  0.00    +0.000 A 
ATOM      6  C   UNL     1      14.812  16.030  43.674  0.00  0.00    +0.000 A 
ENDROOT
BRANCH   1  11
ATOM      7  O   UNL     1       7.454  16.887  43.779  0.00  0.00    +0.000 OA
ATOM      8  C   UNL     1       8.317  16.035  43.658  0.00  0.00    +0.000 A 
ATOM      9  C   UNL     1       9.767  16.354  43.593  0.00  0.00    +0.000 A 
ATOM     10  C   UNL     1       8.032  14.593  43.551  0.00  0.00    +0.000 A 
ATOM     11  C   UNL     1      10.520  15.513  43.475  0.00  0.00    +0.000 A 
ATOM     12  C   UNL     1       9.136  13.782  43.390  0.00  0.00    +0.000 A 
ATOM     13  C   UNL     1       6.725  13.974  43.597  0.00  0.00    +0.000 A 
ATOM     14  O   UNL     1      10.387  14.398  43.344  0.00  0.00    +0.000 OA
ATOM     15  C   UNL     1       8.959  12.345  43.273  0.00  0.00    +0.000 A 
ATOM     16  C   UNL     1       6.572  12.600  43.491  0.00  0.00    +0.000 A 
ATOM     17  C   UNL     1       7.677  11.780  43.329  0.00  0.00    +0.000 A 
BRANCH  13  18
ATOM     18  O   UNL     1       5.613  14.737  43.752  0.00  0.00    +0.000 OA
ATOM     19  H   UNL     1       5.284  14.559  44.650  0.00  0.00    +0.000 HD
ENDBRANCH  13  18
BRANCH  17  20
ATOM     20  O   UNL     1       7.442  10.435  43.234  0.00  0.00    +0.000 OA
ATOM     21  H   UNL     1       7.066  10.050  44.037  0.00  0.00    +0.000 HD
ENDBRANCH  17  20
BRANCH   9  22
ATOM     22  O   UNL     1       9.967  17.699  43.654  0.00  0.00    +0.000 OA
ATOM     23  H   UNL     1       9.250  18.077  44.220  0.00  0.00    +0.000 HD
ENDBRANCH   9  22
ENDBRANCH   1  11
BRANCH   4  24
ATOM     24  O   UNL     1      14.762  17.100  41.540  0.00  0.00    +0.000 OA
ATOM     25  H   UNL     1      14.137  17.500  40.915  0.00  0.00    +0.000 HD
ENDBRANCH   4  24
BRANCH   6  26
ATOM     26  O   UNL     1      16.199  16.108  43.635  0.00  0.00    +0.000 OA
BRANCH  26  27
ATOM     27  C   UNL     1      17.099  14.983  43.784  0.00  0.00    +0.000 C 
ATOM     28  O   UNL     1      17.491  14.445  42.491  0.00  0.00    +0.000 OA
ATOM     29  C   UNL     1      18.367  15.453  44.546  0.00  0.00    +0.000 C 
ATOM     30  C   UNL     1      18.183  15.374  41.615  0.00  0.00    +0.000 C 
ATOM     31  C   UNL     1      19.220  16.413  43.677  0.00  0.00    +0.000 C 
ATOM     32  C   UNL     1      19.514  15.795  42.287  0.00  0.00    +0.000 C 
BRANCH  29  33
ATOM     33  O   UNL     1      19.140  14.306  44.922  0.00  0.00    +0.000 OA
ATOM     34  H   UNL     1      18.529  13.618  45.242  0.00  0.00    +0.000 HD
ENDBRANCH  29  33
BRANCH  32  35
ATOM     35  O   UNL     1      20.202  16.744  41.461  0.00  0.00    +0.000 OA
ATOM     36  H   UNL     1      20.190  17.612  41.900  0.00  0.00    +0.000 HD
ENDBRANCH  32  35
BRANCH  31  37
ATOM     37  O   UNL     1      20.448  16.715  44.355  0.00  0.00    +0.000 OA
ATOM     38  H   UNL     1      20.446  17.664  44.585  0.00  0.00    +0.000 HD
ENDBRANCH  31  37
BRANCH  30  39
ATOM     39  C   UNL     1      18.381  14.692  40.243  0.00  0.00    +0.000 C 
BRANCH  39  40
ATOM     40  O   UNL     1      19.689  14.123  40.139  0.00  0.00    +0.000 OA
ATOM     41  H   UNL     1      20.097  14.460  39.323  0.00  0.00    +0.000 HD
ENDBRANCH  39  40
ENDBRANCH  30  39
ENDBRANCH  26  27
ENDBRANCH   6  26
TORSDOF 12
ENDMDL
MODEL 20
REMARK VINA RESULT:    -6.020      2.105     10.015
REMARK INTER + INTRA:          -9.507
REMARK INTER:                  -8.624
REMARK INTRA:                  -0.883
REMARK UNBOUND:                -0.671
REMARK  Name = opt55.pdb
REMARK  12 active torsions:
REMARK  status: ('A' for Active; 'I' for Inactive)
REMARK    1  A    between atoms: C_3  and  O_5
REMARK    2  A    between atoms: C_6  and  C_10
REMARK    3  A    between atoms: C_8  and  O_12
REMARK    4  A    between atoms: C_16  and  O_19
REMARK    5  A    between atoms: C_17  and  O_20
REMARK    6  A    between atoms: C_21  and  O_22
REMARK    7  A    between atoms: O_22  and  C_23
REMARK    8  A    between atoms: C_25  and  O_27
REMARK    9  A    between atoms: C_26  and  C_30
REMARK   10  A    between atoms: C_28  and  O_31
REMARK   11  A    between atoms: C_29  and  O_32
REMARK   12  A    between atoms: C_30  and  O_33
REMARK                            x       y       z     vdW  Elec       q    Type
REMARK                         _______ _______ _______ _____ _____    ______ ____
ROOT
ATOM      1  C   UNL     1      12.181  14.658  43.603  0.00  0.00    +0.000 A 
ATOM      2  C   UNL     1      12.720  15.519  42.629  0.00  0.00    +0.000 A 
ATOM      3  C   UNL     1      13.035  14.157  44.603  0.00  0.00    +0.000 A 
ATOM      4  C   UNL     1      14.081  15.837  42.636  0.00  0.00    +0.000 A 
ATOM      5  C   UNL     1      14.397  14.468  44.596  0.00  0.00    +0.000 A 
ATOM      6  C   UNL     1      14.932  15.288  43.598  0.00  0.00    +0.000 A 
ENDROOT
BRANCH   1  11
ATOM      7  O   UNL     1       8.708  11.675  42.607  0.00  0.00    +0.000 OA
ATOM      8  C   UNL     1       9.060  12.789  42.953  0.00  0.00    +0.000 A 
ATOM      9  C   UNL     1      10.482  13.151  43.196  0.00  0.00    +0.000 A 
ATOM     10  C   UNL     1       8.128  13.908  43.181  0.00  0.00    +0.000 A 
ATOM     11  C   UNL     1      10.743  14.206  43.521  0.00  0.00    +0.000 A 
ATOM     12  C   UNL     1       8.710  15.088  43.597  0.00  0.00    +0.000 A 
ATOM     13  C   UNL     1       6.692  13.872  43.012  0.00  0.00    +0.000 A 
ATOM     14  O   UNL     1      10.096  15.102  43.758  0.00  0.00    +0.000 OA
ATOM     15  C   UNL     1       7.873  16.248  43.850  0.00  0.00    +0.000 A 
ATOM     16  C   UNL     1       5.907  14.990  43.251  0.00  0.00    +0.000 A 
ATOM     17  C   UNL     1       6.485  16.178  43.669  0.00  0.00    +0.000 A 
BRANCH  13  18
ATOM     18  O   UNL     1       6.080  12.729  42.607  0.00  0.00    +0.000 OA
ATOM     19  H   UNL     1       6.241  12.072  43.306  0.00  0.00    +0.000 HD
ENDBRANCH  13  18
BRANCH  17  20
ATOM     20  O   UNL     1       5.644  17.236  43.881  0.00  0.00    +0.000 OA
ATOM     21  H   UNL     1       5.194  17.208  44.737  0.00  0.00    +0.000 HD
ENDBRANCH  17  20
BRANCH   9  22
ATOM     22  O   UNL     1      11.291  12.071  43.011  0.00  0.00    +0.000 OA
ATOM     23  H   UNL     1      12.091  12.385  42.524  0.00  0.00    +0.000 HD
ENDBRANCH   9  22
ENDBRANCH   1  11
BRANCH   4  24
ATOM     24  O   UNL     1      14.592  16.667  41.679  0.00  0.00    +0.000 OA
ATOM     25  H   UNL     1      14.152  17.531  41.707  0.00  0.00    +0.000 HD
ENDBRANCH   4  24
BRANCH   6  26
ATOM     26  O   UNL     1      16.290  15.568  43.507  0.00  0.00    +0.000 OA
BRANCH  26  27
ATOM     27  C   UNL     1      17.345  14.574  43.497  0.00  0.00    +0.000 C 
ATOM     28  O   UNL     1      17.736  14.233  42.139  0.00  0.00    +0.000 OA
ATOM     29  C   UNL     1      18.575  15.140  44.255  0.00  0.00    +0.000 C 
ATOM     30  C   UNL     1      18.244  15.336  41.342  0.00  0.00    +0.000 C 
ATOM     31  C   UNL     1      19.238  16.296  43.462  0.00  0.00    +0.000 C 
ATOM     32  C   UNL     1      19.539  15.872  42.002  0.00  0.00    +0.000 C 
BRANCH  29  33
ATOM     33  O   UNL     1      19.518  14.084  44.473  0.00  0.00    +0.000 OA
ATOM     34  H   UNL     1      20.376  14.484  44.704  0.00  0.00    +0.000 HD
ENDBRANCH  29  33
BRANCH  32  35
ATOM     35  O   UNL     1      20.043  16.988  41.258  0.00  0.00    +0.000 OA
ATOM     36  H   UNL     1      20.800  16.695  40.722  0.00  0.00    +0.000 HD
ENDBRANCH  32  35
BRANCH  31  37
ATOM     37  O   UNL     1      20.448  16.700  44.120  0.00  0.00    +0.000 OA
ATOM     38  H   UNL     1      21.008  17.167  43.472  0.00  0.00    +0.000 HD
ENDBRANCH  31  37
BRANCH  30  39
ATOM     39  C   UNL     1      18.459  14.832  39.898  0.00  0.00    +0.000 C 
BRANCH  39  40
ATOM     40  O   UNL     1      19.852  14.679  39.611  0.00  0.00    +0.000 OA
ATOM     41  H   UNL     1      19.939  14.443  38.671  0.00  0.00    +0.000 HD
ENDBRANCH  39  40
ENDBRANCH  30  39
ENDBRANCH  26  27
ENDBRANCH   6  26
TORSDOF 12
ENDMDL
