MODEL 1
REMARK VINA RESULT:    -5.030      0.000      0.000
REMARK INTER + INTRA:          -5.177
REMARK INTER:                  -5.177
REMARK INTRA:                   0.000
REMARK UNBOUND:                 0.000
REMARK  Name = opt26.pdb
REMARK  1 active torsions:
REMARK  status: ('A' for Active; 'I' for Inactive)
REMARK    1  A    between atoms: C_10  and  O_12
REMARK                            x       y       z     vdW  Elec       q    Type
REMARK                         _______ _______ _______ _____ _____    ______ ____
ROOT
ATOM      1  O   UNL     1      10.714  10.498  42.542  0.00  0.00    +0.000 OA
ATOM      2  C   UNL     1      11.293  11.519  42.850  0.00  0.00    +0.000 A 
ATOM      3  O   UNL     1      12.419  11.488  43.607  0.00  0.00    +0.000 OA
ATOM      4  C   UNL     1      10.849  12.863  42.449  0.00  0.00    +0.000 A 
ATOM      5  C   UNL     1      13.134  12.601  44.000  0.00  0.00    +0.000 A 
ATOM      6  C   UNL     1      11.559  14.051  42.831  0.00  0.00    +0.000 A 
ATOM      7  C   UNL     1      12.702  13.916  43.607  0.00  0.00    +0.000 A 
ATOM      8  C   UNL     1      14.313  12.437  44.803  0.00  0.00    +0.000 A 
ATOM      9  C   UNL     1      13.448  15.020  44.019  0.00  0.00    +0.000 A 
ATOM     10  C   UNL     1      15.024  13.574  45.189  0.00  0.00    +0.000 A 
ATOM     11  C   UNL     1      14.593  14.846  44.800  0.00  0.00    +0.000 A 
ENDROOT
BRANCH  10  12
ATOM     12  O   UNL     1      16.148  13.454  45.952  0.00  0.00    +0.000 OA
ATOM     13  H   UNL     1      16.899  13.163  45.403  0.00  0.00    +0.000 HD
ENDBRANCH  10  12
TORSDOF 1
ENDMDL
MODEL 2
REMARK VINA RESULT:    -4.956      2.208      3.257
REMARK INTER + INTRA:          -5.101
REMARK INTER:                  -5.101
REMARK INTRA:                   0.000
REMARK UNBOUND:                 0.000
REMARK  Name = opt26.pdb
REMARK  1 active torsions:
REMARK  status: ('A' for Active; 'I' for Inactive)
REMARK    1  A    between atoms: C_10  and  O_12
REMARK                            x       y       z     vdW  Elec       q    Type
REMARK                         _______ _______ _______ _____ _____    ______ ____
ROOT
ATOM      1  O   UNL     1      10.319  16.113  43.645  0.00  0.00    +0.000 OA
ATOM      2  C   UNL     1      11.436  15.731  43.925  0.00  0.00    +0.000 A 
ATOM      3  O   UNL     1      11.769  14.417  43.856  0.00  0.00    +0.000 OA
ATOM      4  C   UNL     1      12.521  16.626  44.358  0.00  0.00    +0.000 A 
ATOM      5  C   UNL     1      13.014  13.903  44.158  0.00  0.00    +0.000 A 
ATOM      6  C   UNL     1      13.833  16.140  44.681  0.00  0.00    +0.000 A 
ATOM      7  C   UNL     1      14.075  14.777  44.580  0.00  0.00    +0.000 A 
ATOM      8  C   UNL     1      13.241  12.490  44.047  0.00  0.00    +0.000 A 
ATOM      9  C   UNL     1      15.322  14.227  44.875  0.00  0.00    +0.000 A 
ATOM     10  C   UNL     1      14.507  11.989  44.353  0.00  0.00    +0.000 A 
ATOM     11  C   UNL     1      15.530  12.850  44.762  0.00  0.00    +0.000 A 
ENDROOT
BRANCH  10  12
ATOM     12  O   UNL     1      14.758  10.652  44.259  0.00  0.00    +0.000 OA
ATOM     13  H   UNL     1      15.374  10.476  43.524  0.00  0.00    +0.000 HD
ENDBRANCH  10  12
TORSDOF 1
ENDMDL
MODEL 3
REMARK VINA RESULT:    -4.919      1.581      1.686
REMARK INTER + INTRA:          -5.063
REMARK INTER:                  -5.063
REMARK INTRA:                   0.000
REMARK UNBOUND:                 0.000
REMARK  Name = opt26.pdb
REMARK  1 active torsions:
REMARK  status: ('A' for Active; 'I' for Inactive)
REMARK    1  A    between atoms: C_10  and  O_12
REMARK                            x       y       z     vdW  Elec       q    Type
REMARK                         _______ _______ _______ _____ _____    ______ ____
ROOT
ATOM      1  O   UNL     1       9.862  13.095  44.114  0.00  0.00    +0.000 OA
ATOM      2  C   UNL     1      10.971  13.542  43.906  0.00  0.00    +0.000 A 
ATOM      3  O   UNL     1      12.014  13.241  44.720  0.00  0.00    +0.000 OA
ATOM      4  C   UNL     1      11.296  14.432  42.781  0.00  0.00    +0.000 A 
ATOM      5  C   UNL     1      13.303  13.707  44.553  0.00  0.00    +0.000 A 
ATOM      6  C   UNL     1      12.621  14.942  42.564  0.00  0.00    +0.000 A 
ATOM      7  C   UNL     1      13.622  14.577  43.453  0.00  0.00    +0.000 A 
ATOM      8  C   UNL     1      14.322  13.316  45.486  0.00  0.00    +0.000 A 
ATOM      9  C   UNL     1      14.934  15.028  43.311  0.00  0.00    +0.000 A 
ATOM     10  C   UNL     1      15.620  13.795  45.299  0.00  0.00    +0.000 A 
ATOM     11  C   UNL     1      15.916  14.640  44.225  0.00  0.00    +0.000 A 
ENDROOT
BRANCH  10  12
ATOM     12  O   UNL     1      16.612  13.445  46.166  0.00  0.00    +0.000 OA
ATOM     13  H   UNL     1      16.607  14.037  46.941  0.00  0.00    +0.000 HD
ENDBRANCH  10  12
TORSDOF 1
ENDMDL
MODEL 4
REMARK VINA RESULT:    -4.875      3.011      4.887
REMARK INTER + INTRA:          -5.017
REMARK INTER:                  -5.017
REMARK INTRA:                   0.000
REMARK UNBOUND:                 0.000
REMARK  Name = opt26.pdb
REMARK  1 active torsions:
REMARK  status: ('A' for Active; 'I' for Inactive)
REMARK    1  A    between atoms: C_10  and  O_12
REMARK                            x       y       z     vdW  Elec       q    Type
REMARK                         _______ _______ _______ _____ _____    ______ ____
ROOT
ATOM      1  O   UNL     1      17.879  14.324  40.396  0.00  0.00    +0.000 OA
ATOM      2  C   UNL     1      17.334  14.188  41.472  0.00  0.00    +0.000 A 
ATOM      3  O   UNL     1      16.063  13.723  41.563  0.00  0.00    +0.000 OA
ATOM      4  C   UNL     1      17.975  14.504  42.758  0.00  0.00    +0.000 A 
ATOM      5  C   UNL     1      15.374  13.541  42.745  0.00  0.00    +0.000 A 
ATOM      6  C   UNL     1      17.301  14.330  44.014  0.00  0.00    +0.000 A 
ATOM      7  C   UNL     1      16.000  13.848  44.003  0.00  0.00    +0.000 A 
ATOM      8  C   UNL     1      14.028  13.042  42.710  0.00  0.00    +0.000 A 
ATOM      9  C   UNL     1      15.277  13.651  45.180  0.00  0.00    +0.000 A 
ATOM     10  C   UNL     1      13.349  12.862  43.915  0.00  0.00    +0.000 A 
ATOM     11  C   UNL     1      13.969  13.164  45.131  0.00  0.00    +0.000 A 
ENDROOT
BRANCH  10  12
ATOM     12  O   UNL     1      12.069  12.390  43.918  0.00  0.00    +0.000 OA
ATOM     13  H   UNL     1      11.580  12.746  44.683  0.00  0.00    +0.000 HD
ENDBRANCH  10  12
TORSDOF 1
ENDMDL
MODEL 5
REMARK VINA RESULT:    -4.814      2.189      4.622
REMARK INTER + INTRA:          -4.955
REMARK INTER:                  -4.955
REMARK INTRA:                   0.000
REMARK UNBOUND:                 0.000
REMARK  Name = opt26.pdb
REMARK  1 active torsions:
REMARK  status: ('A' for Active; 'I' for Inactive)
REMARK    1  A    between atoms: C_10  and  O_12
REMARK                            x       y       z     vdW  Elec       q    Type
REMARK                         _______ _______ _______ _____ _____    ______ ____
ROOT
ATOM      1  O   UNL     1      17.078  17.259  44.550  0.00  0.00    +0.000 OA
ATOM      2  C   UNL     1      16.130  16.501  44.539  0.00  0.00    +0.000 A 
ATOM      3  O   UNL     1      16.304  15.156  44.529  0.00  0.00    +0.000 OA
ATOM      4  C   UNL     1      14.728  16.947  44.533  0.00  0.00    +0.000 A 
ATOM      5  C   UNL     1      15.281  14.229  44.515  0.00  0.00    +0.000 A 
ATOM      6  C   UNL     1      13.629  16.023  44.521  0.00  0.00    +0.000 A 
ATOM      7  C   UNL     1      13.910  14.664  44.512  0.00  0.00    +0.000 A 
ATOM      8  C   UNL     1      15.596  12.829  44.506  0.00  0.00    +0.000 A 
ATOM      9  C   UNL     1      12.900  13.702  44.501  0.00  0.00    +0.000 A 
ATOM     10  C   UNL     1      14.549  11.907  44.495  0.00  0.00    +0.000 A 
ATOM     11  C   UNL     1      13.220  12.343  44.492  0.00  0.00    +0.000 A 
ENDROOT
BRANCH  10  12
ATOM     12  O   UNL     1      14.812  10.569  44.485  0.00  0.00    +0.000 OA
ATOM     13  H   UNL     1      14.425  10.155  43.691  0.00  0.00    +0.000 HD
ENDBRANCH  10  12
TORSDOF 1
ENDMDL
MODEL 6
REMARK VINA RESULT:    -4.812      2.104      3.784
REMARK INTER + INTRA:          -4.953
REMARK INTER:                  -4.953
REMARK INTRA:                   0.000
REMARK UNBOUND:                 0.000
REMARK  Name = opt26.pdb
REMARK  1 active torsions:
REMARK  status: ('A' for Active; 'I' for Inactive)
REMARK    1  A    between atoms: C_10  and  O_12
REMARK                            x       y       z     vdW  Elec       q    Type
REMARK                         _______ _______ _______ _____ _____    ______ ____
ROOT
ATOM      1  O   UNL     1      13.846  17.517  44.603  0.00  0.00    +0.000 OA
ATOM      2  C   UNL     1      13.430  16.413  44.319  0.00  0.00    +0.000 A 
ATOM      3  O   UNL     1      14.162  15.299  44.573  0.00  0.00    +0.000 OA
ATOM      4  C   UNL     1      12.125  16.169  43.686  0.00  0.00    +0.000 A 
ATOM      5  C   UNL     1      13.762  14.011  44.280  0.00  0.00    +0.000 A 
ATOM      6  C   UNL     1      11.663  14.848  43.364  0.00  0.00    +0.000 A 
ATOM      7  C   UNL     1      12.485  13.771  43.663  0.00  0.00    +0.000 A 
ATOM      8  C   UNL     1      14.629  12.912  44.599  0.00  0.00    +0.000 A 
ATOM      9  C   UNL     1      12.109  12.457  43.383  0.00  0.00    +0.000 A 
ATOM     10  C   UNL     1      14.206  11.616  44.298  0.00  0.00    +0.000 A 
ATOM     11  C   UNL     1      12.963  11.397  43.698  0.00  0.00    +0.000 A 
ENDROOT
BRANCH  10  12
ATOM     12  O   UNL     1      15.005  10.549  44.586  0.00  0.00    +0.000 OA
ATOM     13  H   UNL     1      14.463   9.754  44.740  0.00  0.00    +0.000 HD
ENDBRANCH  10  12
TORSDOF 1
ENDMDL
MODEL 7
REMARK VINA RESULT:    -4.755      1.650      2.210
REMARK INTER + INTRA:          -4.894
REMARK INTER:                  -4.894
REMARK INTRA:                   0.000
REMARK UNBOUND:                 0.000
REMARK  Name = opt26.pdb
REMARK  1 active torsions:
REMARK  status: ('A' for Active; 'I' for Inactive)
REMARK    1  A    between atoms: C_10  and  O_12
REMARK                            x       y       z     vdW  Elec       q    Type
REMARK                         _______ _______ _______ _____ _____    ______ ____
ROOT
ATOM      1  O   UNL     1       8.624  12.973  41.655  0.00  0.00    +0.000 OA
ATOM      2  C   UNL     1       9.647  13.253  42.244  0.00  0.00    +0.000 A 
ATOM      3  O   UNL     1      10.557  12.300  42.566  0.00  0.00    +0.000 OA
ATOM      4  C   UNL     1      10.002  14.619  42.661  0.00  0.00    +0.000 A 
ATOM      5  C   UNL     1      11.742  12.536  43.234  0.00  0.00    +0.000 A 
ATOM      6  C   UNL     1      11.223  14.916  43.356  0.00  0.00    +0.000 A 
ATOM      7  C   UNL     1      12.091  13.871  43.640  0.00  0.00    +0.000 A 
ATOM      8  C   UNL     1      12.624  11.440  43.518  0.00  0.00    +0.000 A 
ATOM      9  C   UNL     1      13.296  14.076  44.311  0.00  0.00    +0.000 A 
ATOM     10  C   UNL     1      13.819  11.698  44.191  0.00  0.00    +0.000 A 
ATOM     11  C   UNL     1      14.145  13.000  44.581  0.00  0.00    +0.000 A 
ENDROOT
BRANCH  10  12
ATOM     12  O   UNL     1      14.680  10.680  44.478  0.00  0.00    +0.000 OA
ATOM     13  H   UNL     1      14.611  10.436  45.419  0.00  0.00    +0.000 HD
ENDBRANCH  10  12
TORSDOF 1
ENDMDL
MODEL 8
REMARK VINA RESULT:    -4.685      2.095      4.060
REMARK INTER + INTRA:          -4.821
REMARK INTER:                  -4.821
REMARK INTRA:                   0.000
REMARK UNBOUND:                 0.000
REMARK  Name = opt26.pdb
REMARK  1 active torsions:
REMARK  status: ('A' for Active; 'I' for Inactive)
REMARK    1  A    between atoms: C_10  and  O_12
REMARK                            x       y       z     vdW  Elec       q    Type
REMARK                         _______ _______ _______ _____ _____    ______ ____
ROOT
ATOM      1  O   UNL     1      14.220  11.031  44.412  0.00  0.00    +0.000 OA
ATOM      2  C   UNL     1      13.726  12.140  44.421  0.00  0.00    +0.000 A 
ATOM      3  O   UNL     1      12.417  12.329  44.121  0.00  0.00    +0.000 OA
ATOM      4  C   UNL     1      14.473  13.364  44.749  0.00  0.00    +0.000 A 
ATOM      5  C   UNL     1      11.781  13.554  44.107  0.00  0.00    +0.000 A 
ATOM      6  C   UNL     1      13.856  14.661  44.751  0.00  0.00    +0.000 A 
ATOM      7  C   UNL     1      12.509  14.752  44.430  0.00  0.00    +0.000 A 
ATOM      8  C   UNL     1      10.387  13.623  43.771  0.00  0.00    +0.000 A 
ATOM      9  C   UNL     1      11.836  15.973  44.410  0.00  0.00    +0.000 A 
ATOM     10  C   UNL     1       9.760  14.870  43.766  0.00  0.00    +0.000 A 
ATOM     11  C   UNL     1      10.480  16.027  44.081  0.00  0.00    +0.000 A 
ENDROOT
BRANCH  10  12
ATOM     12  O   UNL     1       8.437  14.973  43.451  0.00  0.00    +0.000 OA
ATOM     13  H   UNL     1       7.918  15.201  44.244  0.00  0.00    +0.000 HD
ENDBRANCH  10  12
TORSDOF 1
ENDMDL
MODEL 9
REMARK VINA RESULT:    -4.664      2.214      3.564
REMARK INTER + INTRA:          -4.801
REMARK INTER:                  -4.801
REMARK INTRA:                   0.000
REMARK UNBOUND:                 0.000
REMARK  Name = opt26.pdb
REMARK  1 active torsions:
REMARK  status: ('A' for Active; 'I' for Inactive)
REMARK    1  A    between atoms: C_10  and  O_12
REMARK                            x       y       z     vdW  Elec       q    Type
REMARK                         _______ _______ _______ _____ _____    ______ ____
ROOT
ATOM      1  O   UNL     1      13.440  10.765  44.348  0.00  0.00    +0.000 OA
ATOM      2  C   UNL     1      13.733  11.941  44.421  0.00  0.00    +0.000 A 
ATOM      3  O   UNL     1      12.779  12.905  44.419  0.00  0.00    +0.000 OA
ATOM      4  C   UNL     1      15.115  12.433  44.518  0.00  0.00    +0.000 A 
ATOM      5  C   UNL     1      13.028  14.260  44.499  0.00  0.00    +0.000 A 
ATOM      6  C   UNL     1      15.427  13.833  44.605  0.00  0.00    +0.000 A 
ATOM      7  C   UNL     1      14.379  14.743  44.595  0.00  0.00    +0.000 A 
ATOM      8  C   UNL     1      11.929  15.184  44.486  0.00  0.00    +0.000 A 
ATOM      9  C   UNL     1      14.598  16.118  44.677  0.00  0.00    +0.000 A 
ATOM     10  C   UNL     1      12.201  16.550  44.571  0.00  0.00    +0.000 A 
ATOM     11  C   UNL     1      13.519  17.006  44.664  0.00  0.00    +0.000 A 
ENDROOT
BRANCH  10  12
ATOM     12  O   UNL     1      11.181  17.455  44.561  0.00  0.00    +0.000 OA
ATOM     13  H   UNL     1      11.060  17.817  43.663  0.00  0.00    +0.000 HD
ENDBRANCH  10  12
TORSDOF 1
ENDMDL
MODEL 10
REMARK VINA RESULT:    -4.624      2.355      4.677
REMARK INTER + INTRA:          -4.759
REMARK INTER:                  -4.759
REMARK INTRA:                   0.000
REMARK UNBOUND:                 0.000
REMARK  Name = opt26.pdb
REMARK  1 active torsions:
REMARK  status: ('A' for Active; 'I' for Inactive)
REMARK    1  A    between atoms: C_10  and  O_12
REMARK                            x       y       z     vdW  Elec       q    Type
REMARK                         _______ _______ _______ _____ _____    ______ ____
ROOT
ATOM      1  O   UNL     1      18.499  14.846  42.051  0.00  0.00    +0.000 OA
ATOM      2  C   UNL     1      17.465  14.816  42.684  0.00  0.00    +0.000 A 
ATOM      3  O   UNL     1      16.797  13.652  42.886  0.00  0.00    +0.000 OA
ATOM      4  C   UNL     1      16.840  16.004  43.286  0.00  0.00    +0.000 A 
ATOM      5  C   UNL     1      15.617  13.533  43.592  0.00  0.00    +0.000 A 
ATOM      6  C   UNL     1      15.614  15.932  44.031  0.00  0.00    +0.000 A 
ATOM      7  C   UNL     1      15.006  14.694  44.182  0.00  0.00    +0.000 A 
ATOM      8  C   UNL     1      15.006  12.242  43.736  0.00  0.00    +0.000 A 
ATOM      9  C   UNL     1      13.815  14.539  44.892  0.00  0.00    +0.000 A 
ATOM     10  C   UNL     1      13.815  12.141  44.456  0.00  0.00    +0.000 A 
ATOM     11  C   UNL     1      13.231  13.277  45.024  0.00  0.00    +0.000 A 
ENDROOT
BRANCH  10  12
ATOM     12  O   UNL     1      13.207  10.930  44.610  0.00  0.00    +0.000 OA
ATOM     13  H   UNL     1      13.454  10.536  45.467  0.00  0.00    +0.000 HD
ENDBRANCH  10  12
TORSDOF 1
ENDMDL
MODEL 11
REMARK VINA RESULT:    -4.543      2.499      4.043
REMARK INTER + INTRA:          -4.676
REMARK INTER:                  -4.676
REMARK INTRA:                   0.000
REMARK UNBOUND:                 0.000
REMARK  Name = opt26.pdb
REMARK  1 active torsions:
REMARK  status: ('A' for Active; 'I' for Inactive)
REMARK    1  A    between atoms: C_10  and  O_12
REMARK                            x       y       z     vdW  Elec       q    Type
REMARK                         _______ _______ _______ _____ _____    ______ ____
ROOT
ATOM      1  O   UNL     1      11.519  17.560  44.579  0.00  0.00    +0.000 OA
ATOM      2  C   UNL     1      12.465  16.801  44.554  0.00  0.00    +0.000 A 
ATOM      3  O   UNL     1      12.290  15.457  44.615  0.00  0.00    +0.000 OA
ATOM      4  C   UNL     1      13.865  17.243  44.459  0.00  0.00    +0.000 A 
ATOM      5  C   UNL     1      13.311  14.528  44.593  0.00  0.00    +0.000 A 
ATOM      6  C   UNL     1      14.962  16.316  44.430  0.00  0.00    +0.000 A 
ATOM      7  C   UNL     1      14.680  14.959  44.498  0.00  0.00    +0.000 A 
ATOM      8  C   UNL     1      12.996  13.129  44.664  0.00  0.00    +0.000 A 
ATOM      9  C   UNL     1      15.688  13.995  44.475  0.00  0.00    +0.000 A 
ATOM     10  C   UNL     1      14.041  12.205  44.638  0.00  0.00    +0.000 A 
ATOM     11  C   UNL     1      15.368  12.637  44.545  0.00  0.00    +0.000 A 
ENDROOT
BRANCH  10  12
ATOM     12  O   UNL     1      13.778  10.869  44.704  0.00  0.00    +0.000 OA
ATOM     13  H   UNL     1      13.397  10.643  45.573  0.00  0.00    +0.000 HD
ENDBRANCH  10  12
TORSDOF 1
ENDMDL
MODEL 12
REMARK VINA RESULT:    -4.534      1.957      3.073
REMARK INTER + INTRA:          -4.666
REMARK INTER:                  -4.666
REMARK INTRA:                   0.000
REMARK UNBOUND:                 0.000
REMARK  Name = opt26.pdb
REMARK  1 active torsions:
REMARK  status: ('A' for Active; 'I' for Inactive)
REMARK    1  A    between atoms: C_10  and  O_12
REMARK                            x       y       z     vdW  Elec       q    Type
REMARK                         _______ _______ _______ _____ _____    ______ ____
ROOT
ATOM      1  O   UNL     1      13.449  11.222  44.526  0.00  0.00    +0.000 OA
ATOM      2  C   UNL     1      13.841  12.369  44.598  0.00  0.00    +0.000 A 
ATOM      3  O   UNL     1      15.164  12.656  44.687  0.00  0.00    +0.000 OA
ATOM      4  C   UNL     1      12.949  13.538  44.597  0.00  0.00    +0.000 A 
ATOM      5  C   UNL     1      15.689  13.929  44.774  0.00  0.00    +0.000 A 
ATOM      6  C   UNL     1      13.446  14.883  44.682  0.00  0.00    +0.000 A 
ATOM      7  C   UNL     1      14.818  15.074  44.771  0.00  0.00    +0.000 A 
ATOM      8  C   UNL     1      17.111  14.103  44.865  0.00  0.00    +0.000 A 
ATOM      9  C   UNL     1      15.381  16.347  44.856  0.00  0.00    +0.000 A 
ATOM     10  C   UNL     1      17.624  15.398  44.948  0.00  0.00    +0.000 A 
ATOM     11  C   UNL     1      16.766  16.502  44.944  0.00  0.00    +0.000 A 
ENDROOT
BRANCH  10  12
ATOM     12  O   UNL     1      18.970  15.599  45.037  0.00  0.00    +0.000 OA
ATOM     13  H   UNL     1      19.279  15.421  45.944  0.00  0.00    +0.000 HD
ENDBRANCH  10  12
TORSDOF 1
ENDMDL
MODEL 13
REMARK VINA RESULT:    -4.524      1.732      4.285
REMARK INTER + INTRA:          -4.657
REMARK INTER:                  -4.657
REMARK INTRA:                   0.000
REMARK UNBOUND:                 0.000
REMARK  Name = opt26.pdb
REMARK  1 active torsions:
REMARK  status: ('A' for Active; 'I' for Inactive)
REMARK    1  A    between atoms: C_10  and  O_12
REMARK                            x       y       z     vdW  Elec       q    Type
REMARK                         _______ _______ _______ _____ _____    ______ ____
ROOT
ATOM      1  O   UNL     1      16.416  13.357  42.593  0.00  0.00    +0.000 OA
ATOM      2  C   UNL     1      15.325  13.562  43.084  0.00  0.00    +0.000 A 
ATOM      3  O   UNL     1      14.224  12.898  42.654  0.00  0.00    +0.000 OA
ATOM      4  C   UNL     1      15.086  14.528  44.168  0.00  0.00    +0.000 A 
ATOM      5  C   UNL     1      12.951  13.074  43.158  0.00  0.00    +0.000 A 
ATOM      6  C   UNL     1      13.782  14.746  44.727  0.00  0.00    +0.000 A 
ATOM      7  C   UNL     1      12.716  14.016  44.219  0.00  0.00    +0.000 A 
ATOM      8  C   UNL     1      11.863  12.308  42.617  0.00  0.00    +0.000 A 
ATOM      9  C   UNL     1      11.419  14.169  44.708  0.00  0.00    +0.000 A 
ATOM     10  C   UNL     1      10.584  12.498  43.141  0.00  0.00    +0.000 A 
ATOM     11  C   UNL     1      10.370  13.418  44.172  0.00  0.00    +0.000 A 
ENDROOT
BRANCH  10  12
ATOM     12  O   UNL     1       9.529  11.788  42.650  0.00  0.00    +0.000 OA
ATOM     13  H   UNL     1       8.752  12.369  42.544  0.00  0.00    +0.000 HD
ENDBRANCH  10  12
TORSDOF 1
ENDMDL
MODEL 14
REMARK VINA RESULT:    -4.513      2.293      4.435
REMARK INTER + INTRA:          -4.645
REMARK INTER:                  -4.645
REMARK INTRA:                   0.000
REMARK UNBOUND:                 0.000
REMARK  Name = opt26.pdb
REMARK  1 active torsions:
REMARK  status: ('A' for Active; 'I' for Inactive)
REMARK    1  A    between atoms: C_10  and  O_12
REMARK                            x       y       z     vdW  Elec       q    Type
REMARK                         _______ _______ _______ _____ _____    ______ ____
ROOT
ATOM      1  O   UNL     1      15.226  18.372  44.604  0.00  0.00    +0.000 OA
ATOM      2  C   UNL     1      14.551  17.363  44.608  0.00  0.00    +0.000 A 
ATOM      3  O   UNL     1      15.122  16.134  44.551  0.00  0.00    +0.000 OA
ATOM      4  C   UNL     1      13.081  17.363  44.672  0.00  0.00    +0.000 A 
ATOM      5  C   UNL     1      14.427  14.941  44.550  0.00  0.00    +0.000 A 
ATOM      6  C   UNL     1      12.313  16.150  44.676  0.00  0.00    +0.000 A 
ATOM      7  C   UNL     1      12.990  14.940  44.615  0.00  0.00    +0.000 A 
ATOM      8  C   UNL     1      15.149  13.702  44.487  0.00  0.00    +0.000 A 
ATOM      9  C   UNL     1      12.318  13.718  44.615  0.00  0.00    +0.000 A 
ATOM     10  C   UNL     1      14.429  12.506  44.490  0.00  0.00    +0.000 A 
ATOM     11  C   UNL     1      13.033  12.520  44.553  0.00  0.00    +0.000 A 
ENDROOT
BRANCH  10  12
ATOM     12  O   UNL     1      15.083  11.311  44.429  0.00  0.00    +0.000 OA
ATOM     13  H   UNL     1      14.605  10.695  43.844  0.00  0.00    +0.000 HD
ENDBRANCH  10  12
TORSDOF 1
ENDMDL
MODEL 15
REMARK VINA RESULT:    -4.127      2.334      5.364
REMARK INTER + INTRA:          -4.248
REMARK INTER:                  -4.248
REMARK INTRA:                   0.000
REMARK UNBOUND:                 0.000
REMARK  Name = opt26.pdb
REMARK  1 active torsions:
REMARK  status: ('A' for Active; 'I' for Inactive)
REMARK    1  A    between atoms: C_10  and  O_12
REMARK                            x       y       z     vdW  Elec       q    Type
REMARK                         _______ _______ _______ _____ _____    ______ ____
ROOT
ATOM      1  O   UNL     1      16.568  18.135  44.576  0.00  0.00    +0.000 OA
ATOM      2  C   UNL     1      16.269  16.960  44.632  0.00  0.00    +0.000 A 
ATOM      3  O   UNL     1      14.974  16.560  44.572  0.00  0.00    +0.000 OA
ATOM      4  C   UNL     1      17.251  15.873  44.768  0.00  0.00    +0.000 A 
ATOM      5  C   UNL     1      14.552  15.247  44.629  0.00  0.00    +0.000 A 
ATOM      6  C   UNL     1      16.862  14.492  44.830  0.00  0.00    +0.000 A 
ATOM      7  C   UNL     1      15.511  14.183  44.760  0.00  0.00    +0.000 A 
ATOM      8  C   UNL     1      13.149  14.951  44.555  0.00  0.00    +0.000 A 
ATOM      9  C   UNL     1      15.053  12.867  44.812  0.00  0.00    +0.000 A 
ATOM     10  C   UNL     1      12.742  13.617  44.612  0.00  0.00    +0.000 A 
ATOM     11  C   UNL     1      13.685  12.593  44.739  0.00  0.00    +0.000 A 
ENDROOT
BRANCH  10  12
ATOM     12  O   UNL     1      11.417  13.300  44.545  0.00  0.00    +0.000 OA
ATOM     13  H   UNL     1      11.158  13.130  43.620  0.00  0.00    +0.000 HD
ENDBRANCH  10  12
TORSDOF 1
ENDMDL
MODEL 16
REMARK VINA RESULT:    -3.943      1.995      2.796
REMARK INTER + INTRA:          -4.059
REMARK INTER:                  -4.059
REMARK INTRA:                   0.000
REMARK UNBOUND:                 0.000
REMARK  Name = opt26.pdb
REMARK  1 active torsions:
REMARK  status: ('A' for Active; 'I' for Inactive)
REMARK    1  A    between atoms: C_10  and  O_12
REMARK                            x       y       z     vdW  Elec       q    Type
REMARK                         _______ _______ _______ _____ _____    ______ ____
ROOT
ATOM      1  O   UNL     1      11.489  13.513  41.584  0.00  0.00    +0.000 OA
ATOM      2  C   UNL     1      12.350  13.504  42.439  0.00  0.00    +0.000 A 
ATOM      3  O   UNL     1      13.248  14.515  42.545  0.00  0.00    +0.000 OA
ATOM      4  C   UNL     1      12.510  12.424  43.426  0.00  0.00    +0.000 A 
ATOM      5  C   UNL     1      14.255  14.579  43.487  0.00  0.00    +0.000 A 
ATOM      6  C   UNL     1      13.540  12.445  44.426  0.00  0.00    +0.000 A 
ATOM      7  C   UNL     1      14.411  13.526  44.453  0.00  0.00    +0.000 A 
ATOM      8  C   UNL     1      15.144  15.706  43.496  0.00  0.00    +0.000 A 
ATOM      9  C   UNL     1      15.437  13.621  45.393  0.00  0.00    +0.000 A 
ATOM     10  C   UNL     1      16.154  15.755  44.457  0.00  0.00    +0.000 A 
ATOM     11  C   UNL     1      16.295  14.723  45.391  0.00  0.00    +0.000 A 
ENDROOT
BRANCH  10  12
ATOM     12  O   UNL     1      17.017  16.810  44.494  0.00  0.00    +0.000 OA
ATOM     13  H   UNL     1      17.858  16.544  44.912  0.00  0.00    +0.000 HD
ENDBRANCH  10  12
TORSDOF 1
ENDMDL
MODEL 17
REMARK VINA RESULT:    -3.918      1.950      5.081
REMARK INTER + INTRA:          -4.032
REMARK INTER:                  -4.032
REMARK INTRA:                   0.000
REMARK UNBOUND:                 0.000
REMARK  Name = opt26.pdb
REMARK  1 active torsions:
REMARK  status: ('A' for Active; 'I' for Inactive)
REMARK    1  A    between atoms: C_10  and  O_12
REMARK                            x       y       z     vdW  Elec       q    Type
REMARK                         _______ _______ _______ _____ _____    ______ ____
ROOT
ATOM      1  O   UNL     1      17.176  16.527  44.421  0.00  0.00    +0.000 OA
ATOM      2  C   UNL     1      16.368  15.622  44.476  0.00  0.00    +0.000 A 
ATOM      3  O   UNL     1      15.362  15.521  43.572  0.00  0.00    +0.000 OA
ATOM      4  C   UNL     1      16.392  14.568  45.502  0.00  0.00    +0.000 A 
ATOM      5  C   UNL     1      14.406  14.526  43.566  0.00  0.00    +0.000 A 
ATOM      6  C   UNL     1      15.421  13.510  45.537  0.00  0.00    +0.000 A 
ATOM      7  C   UNL     1      14.429  13.493  44.567  0.00  0.00    +0.000 A 
ATOM      8  C   UNL     1      13.389  14.528  42.552  0.00  0.00    +0.000 A 
ATOM      9  C   UNL     1      13.450  12.500  44.531  0.00  0.00    +0.000 A 
ATOM     10  C   UNL     1      12.432  13.512  42.561  0.00  0.00    +0.000 A 
ATOM     11  C   UNL     1      12.466  12.514  43.540  0.00  0.00    +0.000 A 
ENDROOT
BRANCH  10  12
ATOM     12  O   UNL     1      11.452  13.484  41.614  0.00  0.00    +0.000 OA
ATOM     13  H   UNL     1      10.920  14.301  41.655  0.00  0.00    +0.000 HD
ENDBRANCH  10  12
TORSDOF 1
ENDMDL
