MODEL 1
REMARK VINA RESULT:    -6.601      0.000      0.000
REMARK INTER + INTRA:         -10.167
REMARK INTER:                  -9.303
REMARK INTRA:                  -0.865
REMARK UNBOUND:                -0.865
REMARK  Name = opt58.pdb
REMARK  10 active torsions:
REMARK  status: ('A' for Active; 'I' for Inactive)
REMARK    1  A    between atoms: C_6  and  O_10
REMARK    2  A    between atoms: C_7  and  C_12
REMARK    3  A    between atoms: C_13  and  O_16
REMARK    4  A    between atoms: O_16  and  C_19
REMARK    5  A    between atoms: C_20  and  O_23
REMARK    6  A    between atoms: C_22  and  O_25
REMARK    7  A    between atoms: C_24  and  C_28
REMARK    8  A    between atoms: C_26  and  O_29
REMARK    9  A    between atoms: C_27  and  O_30
REMARK   10  A    between atoms: C_28  and  O_31
REMARK                            x       y       z     vdW  Elec       q    Type
REMARK                         _______ _______ _______ _____ _____    ______ ____
ROOT
ATOM      1  O   UNL     1      18.787  14.461  45.184  0.00  0.00    +0.000 OA
ATOM      2  C   UNL     1      18.178  14.517  44.132  0.00  0.00    +0.000 C 
ATOM      3  C   UNL     1      16.731  14.115  43.987  0.00  0.00    +0.000 A 
ATOM      4  C   UNL     1      18.906  14.946  42.877  0.00  0.00    +0.000 C 
ATOM      5  C   UNL     1      16.122  14.232  42.730  0.00  0.00    +0.000 A 
ATOM      6  C   UNL     1      15.975  13.609  45.057  0.00  0.00    +0.000 A 
ATOM      7  C   UNL     1      17.942  15.634  41.894  0.00  0.00    +0.000 C 
ATOM      8  O   UNL     1      16.816  14.757  41.657  0.00  0.00    +0.000 OA
ATOM      9  C   UNL     1      14.810  13.811  42.531  0.00  0.00    +0.000 A 
ATOM     10  C   UNL     1      14.659  13.199  44.856  0.00  0.00    +0.000 A 
ATOM     11  C   UNL     1      14.077  13.275  43.594  0.00  0.00    +0.000 A 
ENDROOT
BRANCH   7  12
ATOM     12  C   UNL     1      18.635  15.960  40.582  0.00  0.00    +0.000 A 
ATOM     13  C   UNL     1      18.476  17.209  39.976  0.00  0.00    +0.000 A 
ATOM     14  C   UNL     1      19.401  14.981  39.950  0.00  0.00    +0.000 A 
ATOM     15  C   UNL     1      19.082  17.476  38.751  0.00  0.00    +0.000 A 
ATOM     16  C   UNL     1      20.004  15.245  38.723  0.00  0.00    +0.000 A 
ATOM     17  C   UNL     1      19.843  16.491  38.125  0.00  0.00    +0.000 A 
BRANCH  17  18
ATOM     18  O   UNL     1      20.423  16.744  36.922  0.00  0.00    +0.000 OA
ATOM     19  H   UNL     1      21.388  16.729  37.036  0.00  0.00    +0.000 HD
ENDBRANCH  17  18
ENDBRANCH   7  12
BRANCH   6  20
ATOM     20  O   UNL     1      16.512  13.466  46.301  0.00  0.00    +0.000 OA
ATOM     21  H   UNL     1      16.721  12.514  46.422  0.00  0.00    +0.000 HD
ENDBRANCH   6  20
BRANCH  11  22
ATOM     22  O   UNL     1      12.802  12.762  43.436  0.00  0.00    +0.000 OA
BRANCH  22  23
ATOM     23  C   UNL     1      11.641  13.340  44.080  0.00  0.00    +0.000 C 
ATOM     24  O   UNL     1      11.618  14.782  43.913  0.00  0.00    +0.000 OA
ATOM     25  C   UNL     1      10.362  12.743  43.457  0.00  0.00    +0.000 C 
ATOM     26  C   UNL     1      11.595  15.258  42.539  0.00  0.00    +0.000 C 
ATOM     27  C   UNL     1      10.188  13.208  41.989  0.00  0.00    +0.000 C 
ATOM     28  C   UNL     1      10.304  14.748  41.851  0.00  0.00    +0.000 C 
BRANCH  28  29
ATOM     29  O   UNL     1      10.315  15.107  40.462  0.00  0.00    +0.000 OA
ATOM     30  H   UNL     1       9.704  15.852  40.310  0.00  0.00    +0.000 HD
ENDBRANCH  28  29
BRANCH  25  31
ATOM     31  O   UNL     1       9.241  13.157  44.243  0.00  0.00    +0.000 OA
ATOM     32  H   UNL     1       8.500  13.306  43.630  0.00  0.00    +0.000 HD
ENDBRANCH  25  31
BRANCH  27  33
ATOM     33  O   UNL     1       8.901  12.787  41.529  0.00  0.00    +0.000 OA
ATOM     34  H   UNL     1       9.018  11.879  41.187  0.00  0.00    +0.000 HD
ENDBRANCH  27  33
BRANCH  26  35
ATOM     35  C   UNL     1      11.684  16.799  42.573  0.00  0.00    +0.000 C 
BRANCH  35  36
ATOM     36  O   UNL     1      10.400  17.382  42.326  0.00  0.00    +0.000 OA
ATOM     37  H   UNL     1      10.281  18.107  42.965  0.00  0.00    +0.000 HD
ENDBRANCH  35  36
ENDBRANCH  26  35
ENDBRANCH  22  23
ENDBRANCH  11  22
TORSDOF 10
ENDMDL
MODEL 2
REMARK VINA RESULT:    -6.461      3.082      9.257
REMARK INTER + INTRA:          -9.969
REMARK INTER:                  -8.977
REMARK INTRA:                  -0.992
REMARK UNBOUND:                -0.865
REMARK  Name = opt58.pdb
REMARK  10 active torsions:
REMARK  status: ('A' for Active; 'I' for Inactive)
REMARK    1  A    between atoms: C_6  and  O_10
REMARK    2  A    between atoms: C_7  and  C_12
REMARK    3  A    between atoms: C_13  and  O_16
REMARK    4  A    between atoms: O_16  and  C_19
REMARK    5  A    between atoms: C_20  and  O_23
REMARK    6  A    between atoms: C_22  and  O_25
REMARK    7  A    between atoms: C_24  and  C_28
REMARK    8  A    between atoms: C_26  and  O_29
REMARK    9  A    between atoms: C_27  and  O_30
REMARK   10  A    between atoms: C_28  and  O_31
REMARK                            x       y       z     vdW  Elec       q    Type
REMARK                         _______ _______ _______ _____ _____    ______ ____
ROOT
ATOM      1  O   UNL     1       8.297  11.550  43.425  0.00  0.00    +0.000 OA
ATOM      2  C   UNL     1       8.753  12.674  43.512  0.00  0.00    +0.000 C 
ATOM      3  C   UNL     1      10.180  13.021  43.166  0.00  0.00    +0.000 A 
ATOM      4  C   UNL     1       7.884  13.786  44.056  0.00  0.00    +0.000 C 
ATOM      5  C   UNL     1      10.598  14.352  43.288  0.00  0.00    +0.000 A 
ATOM      6  C   UNL     1      11.111  12.058  42.742  0.00  0.00    +0.000 A 
ATOM      7  C   UNL     1       8.291  15.143  43.454  0.00  0.00    +0.000 C 
ATOM      8  O   UNL     1       9.708  15.338  43.669  0.00  0.00    +0.000 OA
ATOM      9  C   UNL     1      11.922  14.710  43.045  0.00  0.00    +0.000 A 
ATOM     10  C   UNL     1      12.431  12.422  42.488  0.00  0.00    +0.000 A 
ATOM     11  C   UNL     1      12.850  13.738  42.659  0.00  0.00    +0.000 A 
ENDROOT
BRANCH   7  12
ATOM     12  C   UNL     1       7.506  16.281  44.084  0.00  0.00    +0.000 A 
ATOM     13  C   UNL     1       7.621  17.587  43.599  0.00  0.00    +0.000 A 
ATOM     14  C   UNL     1       6.697  16.026  45.192  0.00  0.00    +0.000 A 
ATOM     15  C   UNL     1       6.929  18.626  44.216  0.00  0.00    +0.000 A 
ATOM     16  C   UNL     1       6.008  17.065  45.812  0.00  0.00    +0.000 A 
ATOM     17  C   UNL     1       6.125  18.363  45.323  0.00  0.00    +0.000 A 
BRANCH  17  18
ATOM     18  O   UNL     1       5.462  19.379  45.936  0.00  0.00    +0.000 OA
ATOM     19  H   UNL     1       5.214  19.089  46.830  0.00  0.00    +0.000 HD
ENDBRANCH  17  18
ENDBRANCH   7  12
BRANCH   6  20
ATOM     20  O   UNL     1      10.766  10.747  42.607  0.00  0.00    +0.000 OA
ATOM     21  H   UNL     1      11.534  10.210  42.905  0.00  0.00    +0.000 HD
ENDBRANCH   6  20
BRANCH  11  22
ATOM     22  O   UNL     1      14.195  14.018  42.487  0.00  0.00    +0.000 OA
BRANCH  22  23
ATOM     23  C   UNL     1      15.233  13.369  43.258  0.00  0.00    +0.000 C 
ATOM     24  O   UNL     1      16.489  13.351  42.530  0.00  0.00    +0.000 OA
ATOM     25  C   UNL     1      15.435  14.130  44.585  0.00  0.00    +0.000 C 
ATOM     26  C   UNL     1      17.020  14.652  42.155  0.00  0.00    +0.000 C 
ATOM     27  C   UNL     1      16.043  15.534  44.335  0.00  0.00    +0.000 C 
ATOM     28  C   UNL     1      17.307  15.467  43.441  0.00  0.00    +0.000 C 
BRANCH  28  29
ATOM     29  O   UNL     1      17.722  16.796  43.095  0.00  0.00    +0.000 OA
ATOM     30  H   UNL     1      17.065  17.200  42.496  0.00  0.00    +0.000 HD
ENDBRANCH  28  29
BRANCH  25  31
ATOM     31  O   UNL     1      16.302  13.359  45.422  0.00  0.00    +0.000 OA
ATOM     32  H   UNL     1      15.926  12.462  45.474  0.00  0.00    +0.000 HD
ENDBRANCH  25  31
BRANCH  27  33
ATOM     33  O   UNL     1      16.385  16.112  45.597  0.00  0.00    +0.000 OA
ATOM     34  H   UNL     1      17.355  16.030  45.681  0.00  0.00    +0.000 HD
ENDBRANCH  27  33
BRANCH  26  35
ATOM     35  C   UNL     1      18.286  14.417  41.303  0.00  0.00    +0.000 C 
BRANCH  35  36
ATOM     36  O   UNL     1      19.463  14.710  42.061  0.00  0.00    +0.000 OA
ATOM     37  H   UNL     1      19.979  13.886  42.129  0.00  0.00    +0.000 HD
ENDBRANCH  35  36
ENDBRANCH  26  35
ENDBRANCH  22  23
ENDBRANCH  11  22
TORSDOF 10
ENDMDL
MODEL 3
REMARK VINA RESULT:    -6.436      3.795      5.050
REMARK INTER + INTRA:          -9.935
REMARK INTER:                  -9.008
REMARK INTRA:                  -0.927
REMARK UNBOUND:                -0.865
REMARK  Name = opt58.pdb
REMARK  10 active torsions:
REMARK  status: ('A' for Active; 'I' for Inactive)
REMARK    1  A    between atoms: C_6  and  O_10
REMARK    2  A    between atoms: C_7  and  C_12
REMARK    3  A    between atoms: C_13  and  O_16
REMARK    4  A    between atoms: O_16  and  C_19
REMARK    5  A    between atoms: C_20  and  O_23
REMARK    6  A    between atoms: C_22  and  O_25
REMARK    7  A    between atoms: C_24  and  C_28
REMARK    8  A    between atoms: C_26  and  O_29
REMARK    9  A    between atoms: C_27  and  O_30
REMARK   10  A    between atoms: C_28  and  O_31
REMARK                            x       y       z     vdW  Elec       q    Type
REMARK                         _______ _______ _______ _____ _____    ______ ____
ROOT
ATOM      1  O   UNL     1      15.022  11.211  44.354  0.00  0.00    +0.000 OA
ATOM      2  C   UNL     1      14.722  12.388  44.287  0.00  0.00    +0.000 C 
ATOM      3  C   UNL     1      13.341  12.873  43.920  0.00  0.00    +0.000 A 
ATOM      4  C   UNL     1      15.786  13.438  44.515  0.00  0.00    +0.000 C 
ATOM      5  C   UNL     1      13.099  14.253  43.886  0.00  0.00    +0.000 A 
ATOM      6  C   UNL     1      12.293  11.997  43.592  0.00  0.00    +0.000 A 
ATOM      7  C   UNL     1      15.170  14.724  45.096  0.00  0.00    +0.000 C 
ATOM      8  O   UNL     1      14.090  15.151  44.234  0.00  0.00    +0.000 OA
ATOM      9  C   UNL     1      11.861  14.751  43.488  0.00  0.00    +0.000 A 
ATOM     10  C   UNL     1      11.053  12.499  43.205  0.00  0.00    +0.000 A 
ATOM     11  C   UNL     1      10.835  13.872  43.128  0.00  0.00    +0.000 A 
ENDROOT
BRANCH   7  12
ATOM     12  C   UNL     1      16.209  15.826  45.215  0.00  0.00    +0.000 A 
ATOM     13  C   UNL     1      17.573  15.525  45.270  0.00  0.00    +0.000 A 
ATOM     14  C   UNL     1      15.792  17.153  45.319  0.00  0.00    +0.000 A 
ATOM     15  C   UNL     1      18.509  16.545  45.424  0.00  0.00    +0.000 A 
ATOM     16  C   UNL     1      16.727  18.172  45.478  0.00  0.00    +0.000 A 
ATOM     17  C   UNL     1      18.084  17.867  45.530  0.00  0.00    +0.000 A 
BRANCH  17  18
ATOM     18  O   UNL     1      18.995  18.861  45.697  0.00  0.00    +0.000 OA
ATOM     19  H   UNL     1      19.468  18.989  44.857  0.00  0.00    +0.000 HD
ENDBRANCH  17  18
ENDBRANCH   7  12
BRANCH   6  20
ATOM     20  O   UNL     1      12.467  10.646  43.601  0.00  0.00    +0.000 OA
ATOM     21  H   UNL     1      13.066  10.423  42.855  0.00  0.00    +0.000 HD
ENDBRANCH   6  20
BRANCH  11  22
ATOM     22  O   UNL     1       9.615  14.308  42.643  0.00  0.00    +0.000 OA
BRANCH  22  23
ATOM     23  C   UNL     1       8.566  14.813  43.505  0.00  0.00    +0.000 C 
ATOM     24  O   UNL     1       7.524  15.463  42.730  0.00  0.00    +0.000 OA
ATOM     25  C   UNL     1       7.947  13.641  44.294  0.00  0.00    +0.000 C 
ATOM     26  C   UNL     1       6.863  14.632  41.737  0.00  0.00    +0.000 C 
ATOM     27  C   UNL     1       7.167  12.687  43.354  0.00  0.00    +0.000 C 
ATOM     28  C   UNL     1       6.161  13.452  42.456  0.00  0.00    +0.000 C 
BRANCH  28  29
ATOM     29  O   UNL     1       5.601  12.554  41.488  0.00  0.00    +0.000 OA
ATOM     30  H   UNL     1       4.721  12.874  41.212  0.00  0.00    +0.000 HD
ENDBRANCH  28  29
BRANCH  25  31
ATOM     31  O   UNL     1       7.071  14.179  45.289  0.00  0.00    +0.000 OA
ATOM     32  H   UNL     1       7.628  14.627  45.949  0.00  0.00    +0.000 HD
ENDBRANCH  25  31
BRANCH  27  33
ATOM     33  O   UNL     1       6.460  11.737  44.155  0.00  0.00    +0.000 OA
ATOM     34  H   UNL     1       6.944  10.893  44.068  0.00  0.00    +0.000 HD
ENDBRANCH  27  33
BRANCH  26  35
ATOM     35  C   UNL     1       5.878  15.525  40.954  0.00  0.00    +0.000 C 
BRANCH  35  36
ATOM     36  O   UNL     1       5.539  14.921  39.702  0.00  0.00    +0.000 OA
ATOM     37  H   UNL     1       4.645  14.545  39.792  0.00  0.00    +0.000 HD
ENDBRANCH  35  36
ENDBRANCH  26  35
ENDBRANCH  22  23
ENDBRANCH  11  22
TORSDOF 10
ENDMDL
MODEL 4
REMARK VINA RESULT:    -6.351      3.632      5.053
REMARK INTER + INTRA:          -9.814
REMARK INTER:                  -8.890
REMARK INTRA:                  -0.924
REMARK UNBOUND:                -0.865
REMARK  Name = opt58.pdb
REMARK  10 active torsions:
REMARK  status: ('A' for Active; 'I' for Inactive)
REMARK    1  A    between atoms: C_6  and  O_10
REMARK    2  A    between atoms: C_7  and  C_12
REMARK    3  A    between atoms: C_13  and  O_16
REMARK    4  A    between atoms: O_16  and  C_19
REMARK    5  A    between atoms: C_20  and  O_23
REMARK    6  A    between atoms: C_22  and  O_25
REMARK    7  A    between atoms: C_24  and  C_28
REMARK    8  A    between atoms: C_26  and  O_29
REMARK    9  A    between atoms: C_27  and  O_30
REMARK   10  A    between atoms: C_28  and  O_31
REMARK                            x       y       z     vdW  Elec       q    Type
REMARK                         _______ _______ _______ _____ _____    ______ ____
ROOT
ATOM      1  O   UNL     1      14.570  11.141  44.154  0.00  0.00    +0.000 OA
ATOM      2  C   UNL     1      14.201  12.288  43.989  0.00  0.00    +0.000 C 
ATOM      3  C   UNL     1      12.797  12.658  43.575  0.00  0.00    +0.000 A 
ATOM      4  C   UNL     1      15.198  13.415  44.135  0.00  0.00    +0.000 C 
ATOM      5  C   UNL     1      12.474  14.013  43.427  0.00  0.00    +0.000 A 
ATOM      6  C   UNL     1      11.806  11.697  43.316  0.00  0.00    +0.000 A 
ATOM      7  C   UNL     1      14.502  14.705  44.604  0.00  0.00    +0.000 C 
ATOM      8  O   UNL     1      13.406  14.995  43.704  0.00  0.00    +0.000 OA
ATOM      9  C   UNL     1      11.213  14.401  42.982  0.00  0.00    +0.000 A 
ATOM     10  C   UNL     1      10.542  12.090  42.882  0.00  0.00    +0.000 A 
ATOM     11  C   UNL     1      10.245  13.436  42.691  0.00  0.00    +0.000 A 
ENDROOT
BRANCH   7  12
ATOM     12  C   UNL     1      15.472  15.874  44.637  0.00  0.00    +0.000 A 
ATOM     13  C   UNL     1      15.382  16.910  43.703  0.00  0.00    +0.000 A 
ATOM     14  C   UNL     1      16.497  15.887  45.583  0.00  0.00    +0.000 A 
ATOM     15  C   UNL     1      16.306  17.950  43.720  0.00  0.00    +0.000 A 
ATOM     16  C   UNL     1      17.425  16.925  45.598  0.00  0.00    +0.000 A 
ATOM     17  C   UNL     1      17.329  17.954  44.666  0.00  0.00    +0.000 A 
BRANCH  17  18
ATOM     18  O   UNL     1      18.242  18.961  44.674  0.00  0.00    +0.000 OA
ATOM     19  H   UNL     1      19.066  18.627  45.066  0.00  0.00    +0.000 HD
ENDBRANCH  17  18
ENDBRANCH   7  12
BRANCH   6  20
ATOM     20  O   UNL     1      12.060  10.364  43.438  0.00  0.00    +0.000 OA
ATOM     21  H   UNL     1      11.205   9.918  43.623  0.00  0.00    +0.000 HD
ENDBRANCH   6  20
BRANCH  11  22
ATOM     22  O   UNL     1       9.005  13.757  42.165  0.00  0.00    +0.000 OA
BRANCH  22  23
ATOM     23  C   UNL     1       7.765  13.446  42.842  0.00  0.00    +0.000 C 
ATOM     24  O   UNL     1       6.980  14.647  43.071  0.00  0.00    +0.000 OA
ATOM     25  C   UNL     1       6.943  12.468  41.977  0.00  0.00    +0.000 C 
ATOM     26  C   UNL     1       6.612  15.396  41.880  0.00  0.00    +0.000 C 
ATOM     27  C   UNL     1       6.444  13.156  40.681  0.00  0.00    +0.000 C 
ATOM     28  C   UNL     1       5.730  14.500  40.975  0.00  0.00    +0.000 C 
BRANCH  28  29
ATOM     29  O   UNL     1       5.451  15.176  39.741  0.00  0.00    +0.000 OA
ATOM     30  H   UNL     1       5.788  14.647  38.993  0.00  0.00    +0.000 HD
ENDBRANCH  28  29
BRANCH  25  31
ATOM     31  O   UNL     1       5.831  12.005  42.749  0.00  0.00    +0.000 OA
ATOM     32  H   UNL     1       6.117  11.195  43.206  0.00  0.00    +0.000 HD
ENDBRANCH  25  31
BRANCH  27  33
ATOM     33  O   UNL     1       5.536  12.272  40.018  0.00  0.00    +0.000 OA
ATOM     34  H   UNL     1       5.522  11.450  40.547  0.00  0.00    +0.000 HD
ENDBRANCH  27  33
BRANCH  26  35
ATOM     35  C   UNL     1       5.887  16.680  42.337  0.00  0.00    +0.000 C 
BRANCH  35  36
ATOM     36  O   UNL     1       5.846  17.638  41.275  0.00  0.00    +0.000 OA
ATOM     37  H   UNL     1       6.039  17.164  40.446  0.00  0.00    +0.000 HD
ENDBRANCH  35  36
ENDBRANCH  26  35
ENDBRANCH  22  23
ENDBRANCH  11  22
TORSDOF 10
ENDMDL
MODEL 5
REMARK VINA RESULT:    -6.237      2.485      9.495
REMARK INTER + INTRA:          -9.654
REMARK INTER:                  -8.754
REMARK INTRA:                  -0.900
REMARK UNBOUND:                -0.865
REMARK  Name = opt58.pdb
REMARK  10 active torsions:
REMARK  status: ('A' for Active; 'I' for Inactive)
REMARK    1  A    between atoms: C_6  and  O_10
REMARK    2  A    between atoms: C_7  and  C_12
REMARK    3  A    between atoms: C_13  and  O_16
REMARK    4  A    between atoms: O_16  and  C_19
REMARK    5  A    between atoms: C_20  and  O_23
REMARK    6  A    between atoms: C_22  and  O_25
REMARK    7  A    between atoms: C_24  and  C_28
REMARK    8  A    between atoms: C_26  and  O_29
REMARK    9  A    between atoms: C_27  and  O_30
REMARK   10  A    between atoms: C_28  and  O_31
REMARK                            x       y       z     vdW  Elec       q    Type
REMARK                         _______ _______ _______ _____ _____    ______ ____
ROOT
ATOM      1  O   UNL     1       8.063  17.133  42.240  0.00  0.00    +0.000 OA
ATOM      2  C   UNL     1       8.585  16.070  42.516  0.00  0.00    +0.000 C 
ATOM      3  C   UNL     1      10.066  15.910  42.760  0.00  0.00    +0.000 A 
ATOM      4  C   UNL     1       7.738  14.818  42.558  0.00  0.00    +0.000 C 
ATOM      5  C   UNL     1      10.562  14.640  43.085  0.00  0.00    +0.000 A 
ATOM      6  C   UNL     1      10.970  16.979  42.655  0.00  0.00    +0.000 A 
ATOM      7  C   UNL     1       8.315  13.801  43.558  0.00  0.00    +0.000 C 
ATOM      8  O   UNL     1       9.705  13.566  43.233  0.00  0.00    +0.000 OA
ATOM      9  C   UNL     1      11.927  14.429  43.253  0.00  0.00    +0.000 A 
ATOM     10  C   UNL     1      12.335  16.766  42.835  0.00  0.00    +0.000 A 
ATOM     11  C   UNL     1      12.824  15.492  43.111  0.00  0.00    +0.000 A 
ENDROOT
BRANCH   7  12
ATOM     12  C   UNL     1       7.543  12.493  43.520  0.00  0.00    +0.000 A 
ATOM     13  C   UNL     1       6.145  12.483  43.526  0.00  0.00    +0.000 A 
ATOM     14  C   UNL     1       8.240  11.284  43.527  0.00  0.00    +0.000 A 
ATOM     15  C   UNL     1       5.454  11.274  43.535  0.00  0.00    +0.000 A 
ATOM     16  C   UNL     1       7.549  10.075  43.541  0.00  0.00    +0.000 A 
ATOM     17  C   UNL     1       6.158  10.072  43.545  0.00  0.00    +0.000 A 
BRANCH  17  18
ATOM     18  O   UNL     1       5.484   8.892  43.570  0.00  0.00    +0.000 OA
ATOM     19  H   UNL     1       5.764   8.361  42.806  0.00  0.00    +0.000 HD
ENDBRANCH  17  18
ENDBRANCH   7  12
BRANCH   6  20
ATOM     20  O   UNL     1      10.551  18.236  42.337  0.00  0.00    +0.000 OA
ATOM     21  H   UNL     1      10.889  18.439  41.437  0.00  0.00    +0.000 HD
ENDBRANCH   6  20
BRANCH  11  22
ATOM     22  O   UNL     1      14.196  15.326  43.181  0.00  0.00    +0.000 OA
BRANCH  22  23
ATOM     23  C   UNL     1      14.831  14.027  43.100  0.00  0.00    +0.000 C 
ATOM     24  O   UNL     1      16.111  14.115  42.419  0.00  0.00    +0.000 OA
ATOM     25  C   UNL     1      15.058  13.481  44.525  0.00  0.00    +0.000 C 
ATOM     26  C   UNL     1      17.089  15.004  43.026  0.00  0.00    +0.000 C 
ATOM     27  C   UNL     1      16.121  14.319  45.280  0.00  0.00    +0.000 C 
ATOM     28  C   UNL     1      17.420  14.491  44.450  0.00  0.00    +0.000 C 
BRANCH  28  29
ATOM     29  O   UNL     1      18.294  15.416  45.112  0.00  0.00    +0.000 OA
ATOM     30  H   UNL     1      19.194  15.043  45.157  0.00  0.00    +0.000 HD
ENDBRANCH  28  29
BRANCH  25  31
ATOM     31  O   UNL     1      15.483  12.119  44.425  0.00  0.00    +0.000 OA
ATOM     32  H   UNL     1      14.757  11.567  44.766  0.00  0.00    +0.000 HD
ENDBRANCH  25  31
BRANCH  27  33
ATOM     33  O   UNL     1      16.430  13.659  46.510  0.00  0.00    +0.000 OA
ATOM     34  H   UNL     1      16.446  12.702  46.310  0.00  0.00    +0.000 HD
ENDBRANCH  27  33
BRANCH  26  35
ATOM     35  C   UNL     1      18.326  15.043  42.103  0.00  0.00    +0.000 C 
BRANCH  35  36
ATOM     36  O   UNL     1      19.067  16.249  42.308  0.00  0.00    +0.000 OA
ATOM     37  H   UNL     1      19.101  16.412  43.268  0.00  0.00    +0.000 HD
ENDBRANCH  35  36
ENDBRANCH  26  35
ENDBRANCH  22  23
ENDBRANCH  11  22
TORSDOF 10
ENDMDL
MODEL 6
REMARK VINA RESULT:    -6.237      3.461      5.461
REMARK INTER + INTRA:          -9.653
REMARK INTER:                  -8.651
REMARK INTRA:                  -1.002
REMARK UNBOUND:                -0.865
REMARK  Name = opt58.pdb
REMARK  10 active torsions:
REMARK  status: ('A' for Active; 'I' for Inactive)
REMARK    1  A    between atoms: C_6  and  O_10
REMARK    2  A    between atoms: C_7  and  C_12
REMARK    3  A    between atoms: C_13  and  O_16
REMARK    4  A    between atoms: O_16  and  C_19
REMARK    5  A    between atoms: C_20  and  O_23
REMARK    6  A    between atoms: C_22  and  O_25
REMARK    7  A    between atoms: C_24  and  C_28
REMARK    8  A    between atoms: C_26  and  O_29
REMARK    9  A    between atoms: C_27  and  O_30
REMARK   10  A    between atoms: C_28  and  O_31
REMARK                            x       y       z     vdW  Elec       q    Type
REMARK                         _______ _______ _______ _____ _____    ______ ____
ROOT
ATOM      1  O   UNL     1      15.649  13.189  41.574  0.00  0.00    +0.000 OA
ATOM      2  C   UNL     1      15.101  13.814  42.462  0.00  0.00    +0.000 C 
ATOM      3  C   UNL     1      13.660  13.606  42.859  0.00  0.00    +0.000 A 
ATOM      4  C   UNL     1      15.864  14.908  43.176  0.00  0.00    +0.000 C 
ATOM      5  C   UNL     1      13.133  14.372  43.907  0.00  0.00    +0.000 A 
ATOM      6  C   UNL     1      12.821  12.688  42.207  0.00  0.00    +0.000 A 
ATOM      7  C   UNL     1      15.364  15.069  44.623  0.00  0.00    +0.000 C 
ATOM      8  O   UNL     1      13.930  15.263  44.600  0.00  0.00    +0.000 OA
ATOM      9  C   UNL     1      11.792  14.264  44.265  0.00  0.00    +0.000 A 
ATOM     10  C   UNL     1      11.482  12.575  42.576  0.00  0.00    +0.000 A 
ATOM     11  C   UNL     1      10.955  13.374  43.586  0.00  0.00    +0.000 A 
ENDROOT
BRANCH   7  12
ATOM     12  C   UNL     1      16.038  16.244  45.310  0.00  0.00    +0.000 A 
ATOM     13  C   UNL     1      15.303  17.368  45.699  0.00  0.00    +0.000 A 
ATOM     14  C   UNL     1      17.419  16.221  45.511  0.00  0.00    +0.000 A 
ATOM     15  C   UNL     1      15.944  18.454  46.288  0.00  0.00    +0.000 A 
ATOM     16  C   UNL     1      18.061  17.310  46.096  0.00  0.00    +0.000 A 
ATOM     17  C   UNL     1      17.323  18.425  46.482  0.00  0.00    +0.000 A 
BRANCH  17  18
ATOM     18  O   UNL     1      17.952  19.491  47.042  0.00  0.00    +0.000 OA
ATOM     19  H   UNL     1      17.401  20.280  46.905  0.00  0.00    +0.000 HD
ENDBRANCH  17  18
ENDBRANCH   7  12
BRANCH   6  20
ATOM     20  O   UNL     1      13.273  11.918  41.178  0.00  0.00    +0.000 OA
ATOM     21  H   UNL     1      13.883  12.473  40.643  0.00  0.00    +0.000 HD
ENDBRANCH   6  20
BRANCH  11  22
ATOM     22  O   UNL     1       9.597  13.286  43.839  0.00  0.00    +0.000 OA
BRANCH  22  23
ATOM     23  C   UNL     1       8.670  14.347  43.509  0.00  0.00    +0.000 C 
ATOM     24  O   UNL     1       8.049  14.112  42.217  0.00  0.00    +0.000 OA
ATOM     25  C   UNL     1       7.569  14.417  44.588  0.00  0.00    +0.000 C 
ATOM     26  C   UNL     1       7.302  12.872  42.091  0.00  0.00    +0.000 C 
ATOM     27  C   UNL     1       6.661  13.162  44.539  0.00  0.00    +0.000 C 
ATOM     28  C   UNL     1       6.133  12.883  43.108  0.00  0.00    +0.000 C 
BRANCH  28  29
ATOM     29  O   UNL     1       5.451  11.621  43.085  0.00  0.00    +0.000 OA
ATOM     30  H   UNL     1       6.038  10.938  42.708  0.00  0.00    +0.000 HD
ENDBRANCH  28  29
BRANCH  25  31
ATOM     31  O   UNL     1       6.792  15.597  44.365  0.00  0.00    +0.000 OA
ATOM     32  H   UNL     1       7.324  16.188  43.803  0.00  0.00    +0.000 HD
ENDBRANCH  25  31
BRANCH  27  33
ATOM     33  O   UNL     1       5.554  13.368  45.421  0.00  0.00    +0.000 OA
ATOM     34  H   UNL     1       5.934  13.674  46.268  0.00  0.00    +0.000 HD
ENDBRANCH  27  33
BRANCH  26  35
ATOM     35  C   UNL     1       6.820  12.757  40.629  0.00  0.00    +0.000 C 
BRANCH  35  36
ATOM     36  O   UNL     1       6.484  11.402  40.316  0.00  0.00    +0.000 OA
ATOM     37  H   UNL     1       6.948  11.169  39.492  0.00  0.00    +0.000 HD
ENDBRANCH  35  36
ENDBRANCH  26  35
ENDBRANCH  22  23
ENDBRANCH  11  22
TORSDOF 10
ENDMDL
MODEL 7
REMARK VINA RESULT:    -6.219      3.444      9.411
REMARK INTER + INTRA:          -9.629
REMARK INTER:                  -8.914
REMARK INTRA:                  -0.715
REMARK UNBOUND:                -0.865
REMARK  Name = opt58.pdb
REMARK  10 active torsions:
REMARK  status: ('A' for Active; 'I' for Inactive)
REMARK    1  A    between atoms: C_6  and  O_10
REMARK    2  A    between atoms: C_7  and  C_12
REMARK    3  A    between atoms: C_13  and  O_16
REMARK    4  A    between atoms: O_16  and  C_19
REMARK    5  A    between atoms: C_20  and  O_23
REMARK    6  A    between atoms: C_22  and  O_25
REMARK    7  A    between atoms: C_24  and  C_28
REMARK    8  A    between atoms: C_26  and  O_29
REMARK    9  A    between atoms: C_27  and  O_30
REMARK   10  A    between atoms: C_28  and  O_31
REMARK                            x       y       z     vdW  Elec       q    Type
REMARK                         _______ _______ _______ _____ _____    ______ ____
ROOT
ATOM      1  O   UNL     1       8.033  17.803  41.942  0.00  0.00    +0.000 OA
ATOM      2  C   UNL     1       8.537  16.795  42.399  0.00  0.00    +0.000 C 
ATOM      3  C   UNL     1       9.953  16.735  42.919  0.00  0.00    +0.000 A 
ATOM      4  C   UNL     1       7.747  15.506  42.397  0.00  0.00    +0.000 C 
ATOM      5  C   UNL     1      10.429  15.524  43.438  0.00  0.00    +0.000 A 
ATOM      6  C   UNL     1      10.818  17.841  42.886  0.00  0.00    +0.000 A 
ATOM      7  C   UNL     1       8.168  14.603  43.570  0.00  0.00    +0.000 C 
ATOM      8  O   UNL     1       9.603  14.420  43.522  0.00  0.00    +0.000 OA
ATOM      9  C   UNL     1      11.748  15.401  43.867  0.00  0.00    +0.000 A 
ATOM     10  C   UNL     1      12.134  17.717  43.327  0.00  0.00    +0.000 A 
ATOM     11  C   UNL     1      12.612  16.497  43.797  0.00  0.00    +0.000 A 
ENDROOT
BRANCH   7  12
ATOM     12  C   UNL     1       7.468  13.256  43.507  0.00  0.00    +0.000 A 
ATOM     13  C   UNL     1       6.074  13.168  43.536  0.00  0.00    +0.000 A 
ATOM     14  C   UNL     1       8.231  12.088  43.469  0.00  0.00    +0.000 A 
ATOM     15  C   UNL     1       5.450  11.924  43.522  0.00  0.00    +0.000 A 
ATOM     16  C   UNL     1       7.608  10.843  43.460  0.00  0.00    +0.000 A 
ATOM     17  C   UNL     1       6.219  10.763  43.487  0.00  0.00    +0.000 A 
BRANCH  17  18
ATOM     18  O   UNL     1       5.612   9.547  43.490  0.00  0.00    +0.000 OA
ATOM     19  H   UNL     1       6.272   8.872  43.256  0.00  0.00    +0.000 HD
ENDBRANCH  17  18
ENDBRANCH   7  12
BRANCH   6  20
ATOM     20  O   UNL     1      10.416  19.044  42.389  0.00  0.00    +0.000 OA
ATOM     21  H   UNL     1      10.382  19.675  43.140  0.00  0.00    +0.000 HD
ENDBRANCH   6  20
BRANCH  11  22
ATOM     22  O   UNL     1      13.954  16.412  44.128  0.00  0.00    +0.000 OA
BRANCH  22  23
ATOM     23  C   UNL     1      14.931  15.773  43.272  0.00  0.00    +0.000 C 
ATOM     24  O   UNL     1      16.279  15.993  43.765  0.00  0.00    +0.000 OA
ATOM     25  C   UNL     1      14.655  14.255  43.227  0.00  0.00    +0.000 C 
ATOM     26  C   UNL     1      16.545  15.510  45.110  0.00  0.00    +0.000 C 
ATOM     27  C   UNL     1      14.943  13.597  44.600  0.00  0.00    +0.000 C 
ATOM     28  C   UNL     1      16.346  13.974  45.142  0.00  0.00    +0.000 C 
BRANCH  28  29
ATOM     29  O   UNL     1      16.490  13.489  46.484  0.00  0.00    +0.000 OA
ATOM     30  H   UNL     1      15.712  13.752  47.013  0.00  0.00    +0.000 HD
ENDBRANCH  28  29
BRANCH  25  31
ATOM     31  O   UNL     1      15.485  13.675  42.217  0.00  0.00    +0.000 OA
ATOM     32  H   UNL     1      16.041  14.389  41.858  0.00  0.00    +0.000 HD
ENDBRANCH  25  31
BRANCH  27  33
ATOM     33  O   UNL     1      14.859  12.178  44.450  0.00  0.00    +0.000 OA
ATOM     34  H   UNL     1      15.651  11.910  43.943  0.00  0.00    +0.000 HD
ENDBRANCH  27  33
BRANCH  26  35
ATOM     35  C   UNL     1      17.981  15.933  45.488  0.00  0.00    +0.000 C 
BRANCH  35  36
ATOM     36  O   UNL     1      18.921  14.930  45.091  0.00  0.00    +0.000 OA
ATOM     37  H   UNL     1      18.918  14.239  45.778  0.00  0.00    +0.000 HD
ENDBRANCH  35  36
ENDBRANCH  26  35
ENDBRANCH  22  23
ENDBRANCH  11  22
TORSDOF 10
ENDMDL
MODEL 8
REMARK VINA RESULT:    -6.217      3.469      5.265
REMARK INTER + INTRA:          -9.626
REMARK INTER:                  -8.673
REMARK INTRA:                  -0.953
REMARK UNBOUND:                -0.865
REMARK  Name = opt58.pdb
REMARK  10 active torsions:
REMARK  status: ('A' for Active; 'I' for Inactive)
REMARK    1  A    between atoms: C_6  and  O_10
REMARK    2  A    between atoms: C_7  and  C_12
REMARK    3  A    between atoms: C_13  and  O_16
REMARK    4  A    between atoms: O_16  and  C_19
REMARK    5  A    between atoms: C_20  and  O_23
REMARK    6  A    between atoms: C_22  and  O_25
REMARK    7  A    between atoms: C_24  and  C_28
REMARK    8  A    between atoms: C_26  and  O_29
REMARK    9  A    between atoms: C_27  and  O_30
REMARK   10  A    between atoms: C_28  and  O_31
REMARK                            x       y       z     vdW  Elec       q    Type
REMARK                         _______ _______ _______ _____ _____    ______ ____
ROOT
ATOM      1  O   UNL     1      13.472  11.175  44.569  0.00  0.00    +0.000 OA
ATOM      2  C   UNL     1      13.689  12.313  44.200  0.00  0.00    +0.000 C 
ATOM      3  C   UNL     1      12.718  13.118  43.372  0.00  0.00    +0.000 A 
ATOM      4  C   UNL     1      15.022  12.953  44.518  0.00  0.00    +0.000 C 
ATOM      5  C   UNL     1      13.063  14.428  43.013  0.00  0.00    +0.000 A 
ATOM      6  C   UNL     1      11.488  12.601  42.931  0.00  0.00    +0.000 A 
ATOM      7  C   UNL     1      14.878  14.480  44.649  0.00  0.00    +0.000 C 
ATOM      8  O   UNL     1      14.246  14.991  43.452  0.00  0.00    +0.000 OA
ATOM      9  C   UNL     1      12.230  15.186  42.194  0.00  0.00    +0.000 A 
ATOM     10  C   UNL     1      10.653  13.367  42.122  0.00  0.00    +0.000 A 
ATOM     11  C   UNL     1      11.026  14.650  41.730  0.00  0.00    +0.000 A 
ENDROOT
BRANCH   7  12
ATOM     12  C   UNL     1      16.230  15.145  44.848  0.00  0.00    +0.000 A 
ATOM     13  C   UNL     1      17.415  14.474  44.531  0.00  0.00    +0.000 A 
ATOM     14  C   UNL     1      16.290  16.424  45.401  0.00  0.00    +0.000 A 
ATOM     15  C   UNL     1      18.646  15.081  44.762  0.00  0.00    +0.000 A 
ATOM     16  C   UNL     1      17.521  17.030  45.636  0.00  0.00    +0.000 A 
ATOM     17  C   UNL     1      18.697  16.358  45.317  0.00  0.00    +0.000 A 
BRANCH  17  18
ATOM     18  O   UNL     1      19.899  16.946  45.557  0.00  0.00    +0.000 OA
ATOM     19  H   UNL     1      19.861  17.864  45.241  0.00  0.00    +0.000 HD
ENDBRANCH  17  18
ENDBRANCH   7  12
BRANCH   6  20
ATOM     20  O   UNL     1      11.099  11.333  43.243  0.00  0.00    +0.000 OA
ATOM     21  H   UNL     1      11.849  10.902  43.709  0.00  0.00    +0.000 HD
ENDBRANCH   6  20
BRANCH  11  22
ATOM     22  O   UNL     1      10.200  15.323  40.847  0.00  0.00    +0.000 OA
BRANCH  22  23
ATOM     23  C   UNL     1       9.485  16.528  41.209  0.00  0.00    +0.000 C 
ATOM     24  O   UNL     1       8.857  17.130  40.046  0.00  0.00    +0.000 OA
ATOM     25  C   UNL     1       8.393  16.182  42.243  0.00  0.00    +0.000 C 
ATOM     26  C   UNL     1       7.902  16.293  39.339  0.00  0.00    +0.000 C 
ATOM     27  C   UNL     1       7.276  15.317  41.606  0.00  0.00    +0.000 C 
ATOM     28  C   UNL     1       6.735  15.943  40.295  0.00  0.00    +0.000 C 
BRANCH  28  29
ATOM     29  O   UNL     1       5.838  15.022  39.657  0.00  0.00    +0.000 OA
ATOM     30  H   UNL     1       5.516  15.404  38.819  0.00  0.00    +0.000 HD
ENDBRANCH  28  29
BRANCH  25  31
ATOM     31  O   UNL     1       7.846  17.403  42.748  0.00  0.00    +0.000 OA
ATOM     32  H   UNL     1       7.135  17.164  43.369  0.00  0.00    +0.000 HD
ENDBRANCH  25  31
BRANCH  27  33
ATOM     33  O   UNL     1       6.208  15.191  42.548  0.00  0.00    +0.000 OA
ATOM     34  H   UNL     1       6.571  15.468  43.412  0.00  0.00    +0.000 HD
ENDBRANCH  27  33
BRANCH  26  35
ATOM     35  C   UNL     1       7.436  17.064  38.085  0.00  0.00    +0.000 C 
BRANCH  35  36
ATOM     36  O   UNL     1       6.529  16.269  37.315  0.00  0.00    +0.000 OA
ATOM     37  H   UNL     1       6.120  16.853  36.651  0.00  0.00    +0.000 HD
ENDBRANCH  35  36
ENDBRANCH  26  35
ENDBRANCH  22  23
ENDBRANCH  11  22
TORSDOF 10
ENDMDL
MODEL 9
REMARK VINA RESULT:    -6.200      3.344      5.453
REMARK INTER + INTRA:          -9.601
REMARK INTER:                  -8.854
REMARK INTRA:                  -0.747
REMARK UNBOUND:                -0.865
REMARK  Name = opt58.pdb
REMARK  10 active torsions:
REMARK  status: ('A' for Active; 'I' for Inactive)
REMARK    1  A    between atoms: C_6  and  O_10
REMARK    2  A    between atoms: C_7  and  C_12
REMARK    3  A    between atoms: C_13  and  O_16
REMARK    4  A    between atoms: O_16  and  C_19
REMARK    5  A    between atoms: C_20  and  O_23
REMARK    6  A    between atoms: C_22  and  O_25
REMARK    7  A    between atoms: C_24  and  C_28
REMARK    8  A    between atoms: C_26  and  O_29
REMARK    9  A    between atoms: C_27  and  O_30
REMARK   10  A    between atoms: C_28  and  O_31
REMARK                            x       y       z     vdW  Elec       q    Type
REMARK                         _______ _______ _______ _____ _____    ______ ____
ROOT
ATOM      1  O   UNL     1      16.638  13.455  42.500  0.00  0.00    +0.000 OA
ATOM      2  C   UNL     1      15.847  14.142  43.117  0.00  0.00    +0.000 C 
ATOM      3  C   UNL     1      14.396  13.774  43.305  0.00  0.00    +0.000 A 
ATOM      4  C   UNL     1      16.301  15.471  43.678  0.00  0.00    +0.000 C 
ATOM      5  C   UNL     1      13.574  14.633  44.048  0.00  0.00    +0.000 A 
ATOM      6  C   UNL     1      13.831  12.614  42.751  0.00  0.00    +0.000 A 
ATOM      7  C   UNL     1      15.506  15.831  44.945  0.00  0.00    +0.000 C 
ATOM      8  O   UNL     1      14.093  15.767  44.641  0.00  0.00    +0.000 OA
ATOM      9  C   UNL     1      12.214  14.370  44.192  0.00  0.00    +0.000 A 
ATOM     10  C   UNL     1      12.473  12.349  42.907  0.00  0.00    +0.000 A 
ATOM     11  C   UNL     1      11.654  13.232  43.606  0.00  0.00    +0.000 A 
ENDROOT
BRANCH   7  12
ATOM     12  C   UNL     1      15.869  17.219  45.447  0.00  0.00    +0.000 A 
ATOM     13  C   UNL     1      15.184  18.349  44.994  0.00  0.00    +0.000 A 
ATOM     14  C   UNL     1      16.933  17.369  46.337  0.00  0.00    +0.000 A 
ATOM     15  C   UNL     1      15.559  19.617  45.431  0.00  0.00    +0.000 A 
ATOM     16  C   UNL     1      17.312  18.637  46.770  0.00  0.00    +0.000 A 
ATOM     17  C   UNL     1      16.624  19.759  46.317  0.00  0.00    +0.000 A 
BRANCH  17  18
ATOM     18  O   UNL     1      17.002  20.996  46.731  0.00  0.00    +0.000 OA
ATOM     19  H   UNL     1      16.530  21.657  46.197  0.00  0.00    +0.000 HD
ENDBRANCH  17  18
ENDBRANCH   7  12
BRANCH   6  20
ATOM     20  O   UNL     1      14.577  11.743  42.015  0.00  0.00    +0.000 OA
ATOM     21  H   UNL     1      13.959  11.092  41.615  0.00  0.00    +0.000 HD
ENDBRANCH   6  20
BRANCH  11  22
ATOM     22  O   UNL     1      10.296  12.965  43.643  0.00  0.00    +0.000 OA
BRANCH  22  23
ATOM     23  C   UNL     1       9.457  13.014  42.465  0.00  0.00    +0.000 C 
ATOM     24  O   UNL     1       8.505  11.918  42.457  0.00  0.00    +0.000 OA
ATOM     25  C   UNL     1       8.684  14.349  42.444  0.00  0.00    +0.000 C 
ATOM     26  C   UNL     1       7.599  11.861  43.593  0.00  0.00    +0.000 C 
ATOM     27  C   UNL     1       7.642  14.407  43.590  0.00  0.00    +0.000 C 
ATOM     28  C   UNL     1       6.738  13.148  43.616  0.00  0.00    +0.000 C 
BRANCH  28  29
ATOM     29  O   UNL     1       5.918  13.168  44.793  0.00  0.00    +0.000 OA
ATOM     30  H   UNL     1       5.106  12.649  44.638  0.00  0.00    +0.000 HD
ENDBRANCH  28  29
BRANCH  25  31
ATOM     31  O   UNL     1       8.032  14.475  41.177  0.00  0.00    +0.000 OA
ATOM     32  H   UNL     1       8.298  13.707  40.641  0.00  0.00    +0.000 HD
ENDBRANCH  25  31
BRANCH  27  33
ATOM     33  O   UNL     1       6.831  15.570  43.408  0.00  0.00    +0.000 OA
ATOM     34  H   UNL     1       6.131  15.318  42.773  0.00  0.00    +0.000 HD
ENDBRANCH  27  33
BRANCH  26  35
ATOM     35  C   UNL     1       6.751  10.578  43.457  0.00  0.00    +0.000 C 
BRANCH  35  36
ATOM     36  O   UNL     1       7.581   9.416  43.551  0.00  0.00    +0.000 OA
ATOM     37  H   UNL     1       8.497   9.695  43.373  0.00  0.00    +0.000 HD
ENDBRANCH  35  36
ENDBRANCH  26  35
ENDBRANCH  22  23
ENDBRANCH  11  22
TORSDOF 10
ENDMDL
MODEL 10
REMARK VINA RESULT:    -6.158      3.896      5.291
REMARK INTER + INTRA:          -9.543
REMARK INTER:                  -8.504
REMARK INTRA:                  -1.039
REMARK UNBOUND:                -0.865
REMARK  Name = opt58.pdb
REMARK  10 active torsions:
REMARK  status: ('A' for Active; 'I' for Inactive)
REMARK    1  A    between atoms: C_6  and  O_10
REMARK    2  A    between atoms: C_7  and  C_12
REMARK    3  A    between atoms: C_13  and  O_16
REMARK    4  A    between atoms: O_16  and  C_19
REMARK    5  A    between atoms: C_20  and  O_23
REMARK    6  A    between atoms: C_22  and  O_25
REMARK    7  A    between atoms: C_24  and  C_28
REMARK    8  A    between atoms: C_26  and  O_29
REMARK    9  A    between atoms: C_27  and  O_30
REMARK   10  A    between atoms: C_28  and  O_31
REMARK                            x       y       z     vdW  Elec       q    Type
REMARK                         _______ _______ _______ _____ _____    ______ ____
ROOT
ATOM      1  O   UNL     1      14.361  10.904  44.264  0.00  0.00    +0.000 OA
ATOM      2  C   UNL     1      14.055  12.063  44.062  0.00  0.00    +0.000 C 
ATOM      3  C   UNL     1      12.715  12.484  43.508  0.00  0.00    +0.000 A 
ATOM      4  C   UNL     1      15.074  13.153  44.308  0.00  0.00    +0.000 C 
ATOM      5  C   UNL     1      12.460  13.850  43.327  0.00  0.00    +0.000 A 
ATOM      6  C   UNL     1      11.720  11.560  43.149  0.00  0.00    +0.000 A 
ATOM      7  C   UNL     1      14.383  14.470  44.704  0.00  0.00    +0.000 C 
ATOM      8  O   UNL     1      13.396  14.797  43.698  0.00  0.00    +0.000 OA
ATOM      9  C   UNL     1      11.267  14.283  42.756  0.00  0.00    +0.000 A 
ATOM     10  C   UNL     1      10.523  11.998  42.590  0.00  0.00    +0.000 A 
ATOM     11  C   UNL     1      10.297  13.354  42.369  0.00  0.00    +0.000 A 
ENDROOT
BRANCH   7  12
ATOM     12  C   UNL     1      15.388  15.601  44.835  0.00  0.00    +0.000 A 
ATOM     13  C   UNL     1      16.575  15.429  45.554  0.00  0.00    +0.000 A 
ATOM     14  C   UNL     1      15.099  16.844  44.271  0.00  0.00    +0.000 A 
ATOM     15  C   UNL     1      17.464  16.490  45.701  0.00  0.00    +0.000 A 
ATOM     16  C   UNL     1      15.986  17.907  44.422  0.00  0.00    +0.000 A 
ATOM     17  C   UNL     1      17.167  17.728  45.137  0.00  0.00    +0.000 A 
BRANCH  17  18
ATOM     18  O   UNL     1      18.026  18.769  45.294  0.00  0.00    +0.000 OA
ATOM     19  H   UNL     1      18.482  18.922  44.449  0.00  0.00    +0.000 HD
ENDBRANCH  17  18
ENDBRANCH   7  12
BRANCH   6  20
ATOM     20  O   UNL     1      11.910  10.219  43.297  0.00  0.00    +0.000 OA
ATOM     21  H   UNL     1      12.191   9.864  42.425  0.00  0.00    +0.000 HD
ENDBRANCH   6  20
BRANCH  11  22
ATOM     22  O   UNL     1       9.131  13.719  41.720  0.00  0.00    +0.000 OA
BRANCH  22  23
ATOM     23  C   UNL     1       7.841  13.153  42.052  0.00  0.00    +0.000 C 
ATOM     24  O   UNL     1       7.324  13.722  43.285  0.00  0.00    +0.000 OA
ATOM     25  C   UNL     1       6.845  13.446  40.910  0.00  0.00    +0.000 C 
ATOM     26  C   UNL     1       7.143  15.164  43.287  0.00  0.00    +0.000 C 
ATOM     27  C   UNL     1       6.526  14.960  40.825  0.00  0.00    +0.000 C 
ATOM     28  C   UNL     1       6.107  15.543  42.199  0.00  0.00    +0.000 C 
BRANCH  28  29
ATOM     29  O   UNL     1       5.998  16.970  42.103  0.00  0.00    +0.000 OA
ATOM     30  H   UNL     1       6.020  17.363  42.996  0.00  0.00    +0.000 HD
ENDBRANCH  28  29
BRANCH  25  31
ATOM     31  O   UNL     1       5.648  12.701  41.152  0.00  0.00    +0.000 OA
ATOM     32  H   UNL     1       4.899  13.295  40.969  0.00  0.00    +0.000 HD
ENDBRANCH  25  31
BRANCH  27  33
ATOM     33  O   UNL     1       5.462  15.147  39.887  0.00  0.00    +0.000 OA
ATOM     34  H   UNL     1       5.855  15.020  39.001  0.00  0.00    +0.000 HD
ENDBRANCH  27  33
BRANCH  26  35
ATOM     35  C   UNL     1       6.698  15.581  44.705  0.00  0.00    +0.000 C 
BRANCH  35  36
ATOM     36  O   UNL     1       6.921  16.980  44.910  0.00  0.00    +0.000 OA
ATOM     37  H   UNL     1       6.120  17.345  45.329  0.00  0.00    +0.000 HD
ENDBRANCH  35  36
ENDBRANCH  26  35
ENDBRANCH  22  23
ENDBRANCH  11  22
TORSDOF 10
ENDMDL
MODEL 11
REMARK VINA RESULT:    -6.096      3.646      8.847
REMARK INTER + INTRA:          -9.455
REMARK INTER:                  -8.500
REMARK INTRA:                  -0.954
REMARK UNBOUND:                -0.865
REMARK  Name = opt58.pdb
REMARK  10 active torsions:
REMARK  status: ('A' for Active; 'I' for Inactive)
REMARK    1  A    between atoms: C_6  and  O_10
REMARK    2  A    between atoms: C_7  and  C_12
REMARK    3  A    between atoms: C_13  and  O_16
REMARK    4  A    between atoms: O_16  and  C_19
REMARK    5  A    between atoms: C_20  and  O_23
REMARK    6  A    between atoms: C_22  and  O_25
REMARK    7  A    between atoms: C_24  and  C_28
REMARK    8  A    between atoms: C_26  and  O_29
REMARK    9  A    between atoms: C_27  and  O_30
REMARK   10  A    between atoms: C_28  and  O_31
REMARK                            x       y       z     vdW  Elec       q    Type
REMARK                         _______ _______ _______ _____ _____    ______ ____
ROOT
ATOM      1  O   UNL     1       5.723  14.451  43.238  0.00  0.00    +0.000 OA
ATOM      2  C   UNL     1       6.653  14.821  42.548  0.00  0.00    +0.000 C 
ATOM      3  C   UNL     1       8.098  14.542  42.882  0.00  0.00    +0.000 A 
ATOM      4  C   UNL     1       6.377  15.662  41.322  0.00  0.00    +0.000 C 
ATOM      5  C   UNL     1       9.093  15.002  42.008  0.00  0.00    +0.000 A 
ATOM      6  C   UNL     1       8.488  13.854  44.043  0.00  0.00    +0.000 A 
ATOM      7  C   UNL     1       7.453  15.431  40.246  0.00  0.00    +0.000 C 
ATOM      8  O   UNL     1       8.755  15.653  40.837  0.00  0.00    +0.000 OA
ATOM      9  C   UNL     1      10.441  14.828  42.307  0.00  0.00    +0.000 A 
ATOM     10  C   UNL     1       9.838  13.672  44.333  0.00  0.00    +0.000 A 
ATOM     11  C   UNL     1      10.819  14.175  43.483  0.00  0.00    +0.000 A 
ENDROOT
BRANCH   7  12
ATOM     12  C   UNL     1       7.254  16.360  39.060  0.00  0.00    +0.000 A 
ATOM     13  C   UNL     1       8.211  16.445  38.045  0.00  0.00    +0.000 A 
ATOM     14  C   UNL     1       6.122  17.174  39.010  0.00  0.00    +0.000 A 
ATOM     15  C   UNL     1       8.033  17.333  36.988  0.00  0.00    +0.000 A 
ATOM     16  C   UNL     1       5.946  18.066  37.955  0.00  0.00    +0.000 A 
ATOM     17  C   UNL     1       6.902  18.145  36.947  0.00  0.00    +0.000 A 
BRANCH  17  18
ATOM     18  O   UNL     1       6.735  19.024  35.924  0.00  0.00    +0.000 OA
ATOM     19  H   UNL     1       6.064  18.667  35.317  0.00  0.00    +0.000 HD
ENDBRANCH  17  18
ENDBRANCH   7  12
BRANCH   6  20
ATOM     20  O   UNL     1       7.569  13.387  44.933  0.00  0.00    +0.000 OA
ATOM     21  H   UNL     1       6.821  13.016  44.416  0.00  0.00    +0.000 HD
ENDBRANCH   6  20
BRANCH  11  22
ATOM     22  O   UNL     1      12.141  14.049  43.875  0.00  0.00    +0.000 OA
BRANCH  22  23
ATOM     23  C   UNL     1      13.224  13.885  42.928  0.00  0.00    +0.000 C 
ATOM     24  O   UNL     1      14.297  14.827  43.196  0.00  0.00    +0.000 OA
ATOM     25  C   UNL     1      13.780  12.450  43.032  0.00  0.00    +0.000 C 
ATOM     26  C   UNL     1      14.900  14.738  44.516  0.00  0.00    +0.000 C 
ATOM     27  C   UNL     1      14.495  12.227  44.389  0.00  0.00    +0.000 C 
ATOM     28  C   UNL     1      15.537  13.336  44.685  0.00  0.00    +0.000 C 
BRANCH  28  29
ATOM     29  O   UNL     1      16.036  13.183  46.021  0.00  0.00    +0.000 OA
ATOM     30  H   UNL     1      16.984  12.951  45.994  0.00  0.00    +0.000 HD
ENDBRANCH  28  29
BRANCH  25  31
ATOM     31  O   UNL     1      14.694  12.239  41.952  0.00  0.00    +0.000 OA
ATOM     32  H   UNL     1      14.236  12.501  41.134  0.00  0.00    +0.000 HD
ENDBRANCH  25  31
BRANCH  27  33
ATOM     33  O   UNL     1      15.152  10.957  44.353  0.00  0.00    +0.000 OA
ATOM     34  H   UNL     1      14.472  10.292  44.577  0.00  0.00    +0.000 HD
ENDBRANCH  27  33
BRANCH  26  35
ATOM     35  C   UNL     1      15.930  15.881  44.642  0.00  0.00    +0.000 C 
BRANCH  35  36
ATOM     36  O   UNL     1      17.261  15.373  44.514  0.00  0.00    +0.000 OA
ATOM     37  H   UNL     1      17.818  16.096  44.172  0.00  0.00    +0.000 HD
ENDBRANCH  35  36
ENDBRANCH  26  35
ENDBRANCH  22  23
ENDBRANCH  11  22
TORSDOF 10
ENDMDL
MODEL 12
REMARK VINA RESULT:    -6.041      3.492      8.672
REMARK INTER + INTRA:          -9.377
REMARK INTER:                  -8.398
REMARK INTRA:                  -0.979
REMARK UNBOUND:                -0.865
REMARK  Name = opt58.pdb
REMARK  10 active torsions:
REMARK  status: ('A' for Active; 'I' for Inactive)
REMARK    1  A    between atoms: C_6  and  O_10
REMARK    2  A    between atoms: C_7  and  C_12
REMARK    3  A    between atoms: C_13  and  O_16
REMARK    4  A    between atoms: O_16  and  C_19
REMARK    5  A    between atoms: C_20  and  O_23
REMARK    6  A    between atoms: C_22  and  O_25
REMARK    7  A    between atoms: C_24  and  C_28
REMARK    8  A    between atoms: C_26  and  O_29
REMARK    9  A    between atoms: C_27  and  O_30
REMARK   10  A    between atoms: C_28  and  O_31
REMARK                            x       y       z     vdW  Elec       q    Type
REMARK                         _______ _______ _______ _____ _____    ______ ____
ROOT
ATOM      1  O   UNL     1      12.028  11.201  43.495  0.00  0.00    +0.000 OA
ATOM      2  C   UNL     1      11.979  12.384  43.775  0.00  0.00    +0.000 C 
ATOM      3  C   UNL     1      13.196  13.208  44.116  0.00  0.00    +0.000 A 
ATOM      4  C   UNL     1      10.634  13.071  43.856  0.00  0.00    +0.000 C 
ATOM      5  C   UNL     1      13.027  14.568  44.410  0.00  0.00    +0.000 A 
ATOM      6  C   UNL     1      14.489  12.663  44.169  0.00  0.00    +0.000 A 
ATOM      7  C   UNL     1      10.759  14.563  43.499  0.00  0.00    +0.000 C 
ATOM      8  O   UNL     1      11.779  15.156  44.336  0.00  0.00    +0.000 OA
ATOM      9  C   UNL     1      14.110  15.354  44.796  0.00  0.00    +0.000 A 
ATOM     10  C   UNL     1      15.571  13.456  44.545  0.00  0.00    +0.000 A 
ATOM     11  C   UNL     1      15.388  14.794  44.881  0.00  0.00    +0.000 A 
ENDROOT
BRANCH   7  12
ATOM     12  C   UNL     1       9.438  15.287  43.695  0.00  0.00    +0.000 A 
ATOM     13  C   UNL     1       8.284  14.591  44.065  0.00  0.00    +0.000 A 
ATOM     14  C   UNL     1       9.367  16.660  43.454  0.00  0.00    +0.000 A 
ATOM     15  C   UNL     1       7.072  15.264  44.197  0.00  0.00    +0.000 A 
ATOM     16  C   UNL     1       8.154  17.332  43.581  0.00  0.00    +0.000 A 
ATOM     17  C   UNL     1       7.009  16.634  43.951  0.00  0.00    +0.000 A 
BRANCH  17  18
ATOM     18  O   UNL     1       5.824  17.289  44.064  0.00  0.00    +0.000 OA
ATOM     19  H   UNL     1       5.105  16.659  43.887  0.00  0.00    +0.000 HD
ENDBRANCH  17  18
ENDBRANCH   7  12
BRANCH   6  20
ATOM     20  O   UNL     1      14.717  11.347  43.900  0.00  0.00    +0.000 OA
ATOM     21  H   UNL     1      14.017  10.829  44.354  0.00  0.00    +0.000 HD
ENDBRANCH   6  20
BRANCH  11  22
ATOM     22  O   UNL     1      16.484  15.503  45.341  0.00  0.00    +0.000 OA
BRANCH  22  23
ATOM     23  C   UNL     1      17.304  16.322  44.474  0.00  0.00    +0.000 C 
ATOM     24  O   UNL     1      16.575  17.492  44.019  0.00  0.00    +0.000 OA
ATOM     25  C   UNL     1      18.559  16.782  45.245  0.00  0.00    +0.000 C 
ATOM     26  C   UNL     1      16.087  18.377  45.064  0.00  0.00    +0.000 C 
ATOM     27  C   UNL     1      18.186  17.774  46.375  0.00  0.00    +0.000 C 
ATOM     28  C   UNL     1      17.296  18.934  45.858  0.00  0.00    +0.000 C 
BRANCH  28  29
ATOM     29  O   UNL     1      16.834  19.717  46.967  0.00  0.00    +0.000 OA
ATOM     30  H   UNL     1      16.328  19.151  47.581  0.00  0.00    +0.000 HD
ENDBRANCH  28  29
BRANCH  25  31
ATOM     31  O   UNL     1      19.456  17.402  44.319  0.00  0.00    +0.000 OA
ATOM     32  H   UNL     1      20.335  17.416  44.737  0.00  0.00    +0.000 HD
ENDBRANCH  25  31
BRANCH  27  33
ATOM     33  O   UNL     1      19.392  18.311  46.924  0.00  0.00    +0.000 OA
ATOM     34  H   UNL     1      19.130  19.102  47.436  0.00  0.00    +0.000 HD
ENDBRANCH  27  33
BRANCH  26  35
ATOM     35  C   UNL     1      15.253  19.488  44.391  0.00  0.00    +0.000 C 
BRANCH  35  36
ATOM     36  O   UNL     1      14.461  20.180  45.361  0.00  0.00    +0.000 OA
ATOM     37  H   UNL     1      14.338  19.580  46.119  0.00  0.00    +0.000 HD
ENDBRANCH  35  36
ENDBRANCH  26  35
ENDBRANCH  22  23
ENDBRANCH  11  22
TORSDOF 10
ENDMDL
MODEL 13
REMARK VINA RESULT:    -5.908      2.904      6.096
REMARK INTER + INTRA:          -9.190
REMARK INTER:                  -8.298
REMARK INTRA:                  -0.892
REMARK UNBOUND:                -0.865
REMARK  Name = opt58.pdb
REMARK  10 active torsions:
REMARK  status: ('A' for Active; 'I' for Inactive)
REMARK    1  A    between atoms: C_6  and  O_10
REMARK    2  A    between atoms: C_7  and  C_12
REMARK    3  A    between atoms: C_13  and  O_16
REMARK    4  A    between atoms: O_16  and  C_19
REMARK    5  A    between atoms: C_20  and  O_23
REMARK    6  A    between atoms: C_22  and  O_25
REMARK    7  A    between atoms: C_24  and  C_28
REMARK    8  A    between atoms: C_26  and  O_29
REMARK    9  A    between atoms: C_27  and  O_30
REMARK   10  A    between atoms: C_28  and  O_31
REMARK                            x       y       z     vdW  Elec       q    Type
REMARK                         _______ _______ _______ _____ _____    ______ ____
ROOT
ATOM      1  O   UNL     1      11.981  10.652  43.648  0.00  0.00    +0.000 OA
ATOM      2  C   UNL     1      12.401  11.754  43.351  0.00  0.00    +0.000 C 
ATOM      3  C   UNL     1      11.553  12.817  42.696  0.00  0.00    +0.000 A 
ATOM      4  C   UNL     1      13.860  12.078  43.581  0.00  0.00    +0.000 C 
ATOM      5  C   UNL     1      12.134  14.060  42.410  0.00  0.00    +0.000 A 
ATOM      6  C   UNL     1      10.210  12.605  42.346  0.00  0.00    +0.000 A 
ATOM      7  C   UNL     1      14.052  13.581  43.848  0.00  0.00    +0.000 C 
ATOM      8  O   UNL     1      13.442  14.326  42.768  0.00  0.00    +0.000 OA
ATOM      9  C   UNL     1      11.413  15.048  41.746  0.00  0.00    +0.000 A 
ATOM     10  C   UNL     1       9.488  13.600  41.692  0.00  0.00    +0.000 A 
ATOM     11  C   UNL     1      10.087  14.814  41.368  0.00  0.00    +0.000 A 
ENDROOT
BRANCH   7  12
ATOM     12  C   UNL     1      15.525  13.937  43.958  0.00  0.00    +0.000 A 
ATOM     13  C   UNL     1      16.346  13.962  42.827  0.00  0.00    +0.000 A 
ATOM     14  C   UNL     1      16.076  14.193  45.214  0.00  0.00    +0.000 A 
ATOM     15  C   UNL     1      17.703  14.247  42.953  0.00  0.00    +0.000 A 
ATOM     16  C   UNL     1      17.434  14.473  45.341  0.00  0.00    +0.000 A 
ATOM     17  C   UNL     1      18.245  14.499  44.211  0.00  0.00    +0.000 A 
BRANCH  17  18
ATOM     18  O   UNL     1      19.573  14.761  44.337  0.00  0.00    +0.000 OA
ATOM     19  H   UNL     1      19.677  15.668  44.670  0.00  0.00    +0.000 HD
ENDBRANCH  17  18
ENDBRANCH   7  12
BRANCH   6  20
ATOM     20  O   UNL     1       9.591  11.417  42.593  0.00  0.00    +0.000 OA
ATOM     21  H   UNL     1       8.627  11.596  42.657  0.00  0.00    +0.000 HD
ENDBRANCH   6  20
BRANCH  11  22
ATOM     22  O   UNL     1       9.350  15.725  40.632  0.00  0.00    +0.000 OA
BRANCH  22  23
ATOM     23  C   UNL     1       9.964  16.730  39.790  0.00  0.00    +0.000 C 
ATOM     24  O   UNL     1       9.556  16.570  38.406  0.00  0.00    +0.000 OA
ATOM     25  C   UNL     1       9.541  18.132  40.278  0.00  0.00    +0.000 C 
ATOM     26  C   UNL     1       8.126  16.655  38.155  0.00  0.00    +0.000 C 
ATOM     27  C   UNL     1       8.031  18.375  40.030  0.00  0.00    +0.000 C 
ATOM     28  C   UNL     1       7.625  18.061  38.566  0.00  0.00    +0.000 C 
BRANCH  28  29
ATOM     29  O   UNL     1       6.198  18.130  38.438  0.00  0.00    +0.000 OA
ATOM     30  H   UNL     1       5.936  19.028  38.159  0.00  0.00    +0.000 HD
ENDBRANCH  28  29
BRANCH  25  31
ATOM     31  O   UNL     1      10.320  19.107  39.580  0.00  0.00    +0.000 OA
ATOM     32  H   UNL     1      10.434  19.865  40.180  0.00  0.00    +0.000 HD
ENDBRANCH  25  31
BRANCH  27  33
ATOM     33  O   UNL     1       7.738  19.745  40.319  0.00  0.00    +0.000 OA
ATOM     34  H   UNL     1       8.470  20.067  40.882  0.00  0.00    +0.000 HD
ENDBRANCH  27  33
BRANCH  26  35
ATOM     35  C   UNL     1       7.891  16.351  36.660  0.00  0.00    +0.000 C 
BRANCH  35  36
ATOM     36  O   UNL     1       6.499  16.440  36.342  0.00  0.00    +0.000 OA
ATOM     37  H   UNL     1       6.417  16.395  35.372  0.00  0.00    +0.000 HD
ENDBRANCH  35  36
ENDBRANCH  26  35
ENDBRANCH  22  23
ENDBRANCH  11  22
TORSDOF 10
ENDMDL
MODEL 14
REMARK VINA RESULT:    -5.868      2.736      8.403
REMARK INTER + INTRA:          -9.133
REMARK INTER:                  -8.161
REMARK INTRA:                  -0.972
REMARK UNBOUND:                -0.865
REMARK  Name = opt58.pdb
REMARK  10 active torsions:
REMARK  status: ('A' for Active; 'I' for Inactive)
REMARK    1  A    between atoms: C_6  and  O_10
REMARK    2  A    between atoms: C_7  and  C_12
REMARK    3  A    between atoms: C_13  and  O_16
REMARK    4  A    between atoms: O_16  and  C_19
REMARK    5  A    between atoms: C_20  and  O_23
REMARK    6  A    between atoms: C_22  and  O_25
REMARK    7  A    between atoms: C_24  and  C_28
REMARK    8  A    between atoms: C_26  and  O_29
REMARK    9  A    between atoms: C_27  and  O_30
REMARK   10  A    between atoms: C_28  and  O_31
REMARK                            x       y       z     vdW  Elec       q    Type
REMARK                         _______ _______ _______ _____ _____    ______ ____
ROOT
ATOM      1  O   UNL     1      11.397  10.642  43.520  0.00  0.00    +0.000 OA
ATOM      2  C   UNL     1      11.351  11.836  43.290  0.00  0.00    +0.000 C 
ATOM      3  C   UNL     1      12.468  12.792  43.631  0.00  0.00    +0.000 A 
ATOM      4  C   UNL     1      10.094  12.427  42.691  0.00  0.00    +0.000 C 
ATOM      5  C   UNL     1      12.317  14.147  43.309  0.00  0.00    +0.000 A 
ATOM      6  C   UNL     1      13.646  12.380  44.276  0.00  0.00    +0.000 A 
ATOM      7  C   UNL     1      10.424  13.665  41.839  0.00  0.00    +0.000 C 
ATOM      8  O   UNL     1      11.191  14.592  42.643  0.00  0.00    +0.000 OA
ATOM      9  C   UNL     1      13.289  15.077  43.664  0.00  0.00    +0.000 A 
ATOM     10  C   UNL     1      14.622  13.313  44.620  0.00  0.00    +0.000 A 
ATOM     11  C   UNL     1      14.442  14.664  44.338  0.00  0.00    +0.000 A 
ENDROOT
BRANCH   7  12
ATOM     12  C   UNL     1       9.159  14.337  41.333  0.00  0.00    +0.000 A 
ATOM     13  C   UNL     1       7.914  13.713  41.458  0.00  0.00    +0.000 A 
ATOM     14  C   UNL     1       9.249  15.573  40.691  0.00  0.00    +0.000 A 
ATOM     15  C   UNL     1       6.771  14.324  40.949  0.00  0.00    +0.000 A 
ATOM     16  C   UNL     1       8.106  16.181  40.177  0.00  0.00    +0.000 A 
ATOM     17  C   UNL     1       6.870  15.556  40.306  0.00  0.00    +0.000 A 
BRANCH  17  18
ATOM     18  O   UNL     1       5.757  16.146  39.795  0.00  0.00    +0.000 OA
ATOM     19  H   UNL     1       5.977  16.515  38.923  0.00  0.00    +0.000 HD
ENDBRANCH  17  18
ENDBRANCH   7  12
BRANCH   6  20
ATOM     20  O   UNL     1      13.849  11.078  44.620  0.00  0.00    +0.000 OA
ATOM     21  H   UNL     1      14.184  11.067  45.544  0.00  0.00    +0.000 HD
ENDBRANCH   6  20
BRANCH  11  22
ATOM     22  O   UNL     1      15.400  15.553  44.792  0.00  0.00    +0.000 OA
BRANCH  22  23
ATOM     23  C   UNL     1      16.121  16.445  43.907  0.00  0.00    +0.000 C 
ATOM     24  O   UNL     1      17.195  17.122  44.612  0.00  0.00    +0.000 OA
ATOM     25  C   UNL     1      16.721  15.631  42.742  0.00  0.00    +0.000 C 
ATOM     26  C   UNL     1      18.197  16.259  45.215  0.00  0.00    +0.000 C 
ATOM     27  C   UNL     1      17.845  14.688  43.242  0.00  0.00    +0.000 C 
ATOM     28  C   UNL     1      18.894  15.441  44.100  0.00  0.00    +0.000 C 
BRANCH  28  29
ATOM     29  O   UNL     1      19.805  14.497  44.682  0.00  0.00    +0.000 OA
ATOM     30  H   UNL     1      20.641  14.946  44.911  0.00  0.00    +0.000 HD
ENDBRANCH  28  29
BRANCH  25  31
ATOM     31  O   UNL     1      17.239  16.546  41.772  0.00  0.00    +0.000 OA
ATOM     32  H   UNL     1      17.924  16.072  41.268  0.00  0.00    +0.000 HD
ENDBRANCH  25  31
BRANCH  27  33
ATOM     33  O   UNL     1      18.490  14.108  42.105  0.00  0.00    +0.000 OA
ATOM     34  H   UNL     1      17.908  14.287  41.340  0.00  0.00    +0.000 HD
ENDBRANCH  27  33
BRANCH  26  35
ATOM     35  C   UNL     1      19.178  17.154  46.002  0.00  0.00    +0.000 C 
BRANCH  35  36
ATOM     36  O   UNL     1      20.445  17.212  45.339  0.00  0.00    +0.000 OA
ATOM     37  H   UNL     1      21.133  17.041  46.008  0.00  0.00    +0.000 HD
ENDBRANCH  35  36
ENDBRANCH  26  35
ENDBRANCH  22  23
ENDBRANCH  11  22
TORSDOF 10
ENDMDL
MODEL 15
REMARK VINA RESULT:    -5.831      2.911      5.809
REMARK INTER + INTRA:          -9.082
REMARK INTER:                  -8.175
REMARK INTRA:                  -0.907
REMARK UNBOUND:                -0.865
REMARK  Name = opt58.pdb
REMARK  10 active torsions:
REMARK  status: ('A' for Active; 'I' for Inactive)
REMARK    1  A    between atoms: C_6  and  O_10
REMARK    2  A    between atoms: C_7  and  C_12
REMARK    3  A    between atoms: C_13  and  O_16
REMARK    4  A    between atoms: O_16  and  C_19
REMARK    5  A    between atoms: C_20  and  O_23
REMARK    6  A    between atoms: C_22  and  O_25
REMARK    7  A    between atoms: C_24  and  C_28
REMARK    8  A    between atoms: C_26  and  O_29
REMARK    9  A    between atoms: C_27  and  O_30
REMARK   10  A    between atoms: C_28  and  O_31
REMARK                            x       y       z     vdW  Elec       q    Type
REMARK                         _______ _______ _______ _____ _____    ______ ____
ROOT
ATOM      1  O   UNL     1      11.958  10.676  43.628  0.00  0.00    +0.000 OA
ATOM      2  C   UNL     1      12.361  11.787  43.343  0.00  0.00    +0.000 C 
ATOM      3  C   UNL     1      11.497  12.846  42.703  0.00  0.00    +0.000 A 
ATOM      4  C   UNL     1      13.817  12.127  43.570  0.00  0.00    +0.000 C 
ATOM      5  C   UNL     1      12.061  14.099  42.429  0.00  0.00    +0.000 A 
ATOM      6  C   UNL     1      10.156  12.620  42.355  0.00  0.00    +0.000 A 
ATOM      7  C   UNL     1      13.991  13.629  43.854  0.00  0.00    +0.000 C 
ATOM      8  O   UNL     1      13.366  14.378  42.785  0.00  0.00    +0.000 OA
ATOM      9  C   UNL     1      11.324  15.086  41.779  0.00  0.00    +0.000 A 
ATOM     10  C   UNL     1       9.418  13.613  41.715  0.00  0.00    +0.000 A 
ATOM     11  C   UNL     1      10.000  14.839  41.403  0.00  0.00    +0.000 A 
ENDROOT
BRANCH   7  12
ATOM     12  C   UNL     1      15.460  14.003  43.963  0.00  0.00    +0.000 A 
ATOM     13  C   UNL     1      16.289  13.994  42.838  0.00  0.00    +0.000 A 
ATOM     14  C   UNL     1      15.997  14.311  45.213  0.00  0.00    +0.000 A 
ATOM     15  C   UNL     1      17.642  14.296  42.964  0.00  0.00    +0.000 A 
ATOM     16  C   UNL     1      17.352  14.608  45.340  0.00  0.00    +0.000 A 
ATOM     17  C   UNL     1      18.172  14.600  44.216  0.00  0.00    +0.000 A 
BRANCH  17  18
ATOM     18  O   UNL     1      19.496  14.879  44.343  0.00  0.00    +0.000 OA
ATOM     19  H   UNL     1      19.647  15.260  45.224  0.00  0.00    +0.000 HD
ENDBRANCH  17  18
ENDBRANCH   7  12
BRANCH   6  20
ATOM     20  O   UNL     1       9.553  11.421  42.592  0.00  0.00    +0.000 OA
ATOM     21  H   UNL     1       9.574  10.911  41.752  0.00  0.00    +0.000 HD
ENDBRANCH   6  20
BRANCH  11  22
ATOM     22  O   UNL     1       9.248  15.748  40.680  0.00  0.00    +0.000 OA
BRANCH  22  23
ATOM     23  C   UNL     1       7.812  15.861  40.821  0.00  0.00    +0.000 C 
ATOM     24  O   UNL     1       7.431  17.210  41.204  0.00  0.00    +0.000 OA
ATOM     25  C   UNL     1       7.139  15.513  39.477  0.00  0.00    +0.000 C 
ATOM     26  C   UNL     1       7.829  18.263  40.284  0.00  0.00    +0.000 C 
ATOM     27  C   UNL     1       7.448  16.588  38.404  0.00  0.00    +0.000 C 
ATOM     28  C   UNL     1       7.147  18.021  38.915  0.00  0.00    +0.000 C 
BRANCH  28  29
ATOM     29  O   UNL     1       7.616  18.981  37.957  0.00  0.00    +0.000 OA
ATOM     30  H   UNL     1       8.561  19.165  38.113  0.00  0.00    +0.000 HD
ENDBRANCH  28  29
BRANCH  25  31
ATOM     31  O   UNL     1       5.727  15.419  39.689  0.00  0.00    +0.000 OA
ATOM     32  H   UNL     1       5.322  16.199  39.272  0.00  0.00    +0.000 HD
ENDBRANCH  25  31
BRANCH  27  33
ATOM     33  O   UNL     1       6.650  16.319  37.249  0.00  0.00    +0.000 OA
ATOM     34  H   UNL     1       7.204  16.547  36.476  0.00  0.00    +0.000 HD
ENDBRANCH  27  33
BRANCH  26  35
ATOM     35  C   UNL     1       7.434  19.615  40.917  0.00  0.00    +0.000 C 
BRANCH  35  36
ATOM     36  O   UNL     1       8.220  20.676  40.366  0.00  0.00    +0.000 OA
ATOM     37  H   UNL     1       8.182  20.595  39.395  0.00  0.00    +0.000 HD
ENDBRANCH  35  36
ENDBRANCH  26  35
ENDBRANCH  22  23
ENDBRANCH  11  22
TORSDOF 10
ENDMDL
MODEL 16
REMARK VINA RESULT:    -5.809      3.775      5.914
REMARK INTER + INTRA:          -9.050
REMARK INTER:                  -8.087
REMARK INTRA:                  -0.963
REMARK UNBOUND:                -0.865
REMARK  Name = opt58.pdb
REMARK  10 active torsions:
REMARK  status: ('A' for Active; 'I' for Inactive)
REMARK    1  A    between atoms: C_6  and  O_10
REMARK    2  A    between atoms: C_7  and  C_12
REMARK    3  A    between atoms: C_13  and  O_16
REMARK    4  A    between atoms: O_16  and  C_19
REMARK    5  A    between atoms: C_20  and  O_23
REMARK    6  A    between atoms: C_22  and  O_25
REMARK    7  A    between atoms: C_24  and  C_28
REMARK    8  A    between atoms: C_26  and  O_29
REMARK    9  A    between atoms: C_27  and  O_30
REMARK   10  A    between atoms: C_28  and  O_31
REMARK                            x       y       z     vdW  Elec       q    Type
REMARK                         _______ _______ _______ _____ _____    ______ ____
ROOT
ATOM      1  O   UNL     1      16.341  19.527  42.069  0.00  0.00    +0.000 OA
ATOM      2  C   UNL     1      16.060  18.850  43.040  0.00  0.00    +0.000 C 
ATOM      3  C   UNL     1      14.969  17.807  43.037  0.00  0.00    +0.000 A 
ATOM      4  C   UNL     1      16.781  19.092  44.346  0.00  0.00    +0.000 C 
ATOM      5  C   UNL     1      14.737  17.072  44.207  0.00  0.00    +0.000 A 
ATOM      6  C   UNL     1      14.164  17.556  41.914  0.00  0.00    +0.000 A 
ATOM      7  C   UNL     1      16.861  17.798  45.176  0.00  0.00    +0.000 C 
ATOM      8  O   UNL     1      15.526  17.260  45.326  0.00  0.00    +0.000 OA
ATOM      9  C   UNL     1      13.699  16.147  44.275  0.00  0.00    +0.000 A 
ATOM     10  C   UNL     1      13.134  16.621  41.982  0.00  0.00    +0.000 A 
ATOM     11  C   UNL     1      12.880  15.930  43.163  0.00  0.00    +0.000 A 
ENDROOT
BRANCH   7  12
ATOM     12  C   UNL     1      17.475  18.057  46.541  0.00  0.00    +0.000 A 
ATOM     13  C   UNL     1      18.859  18.185  46.695  0.00  0.00    +0.000 A 
ATOM     14  C   UNL     1      16.649  18.120  47.664  0.00  0.00    +0.000 A 
ATOM     15  C   UNL     1      19.408  18.378  47.959  0.00  0.00    +0.000 A 
ATOM     16  C   UNL     1      17.198  18.307  48.930  0.00  0.00    +0.000 A 
ATOM     17  C   UNL     1      18.576  18.436  49.076  0.00  0.00    +0.000 A 
BRANCH  17  18
ATOM     18  O   UNL     1      19.112  18.608  50.312  0.00  0.00    +0.000 OA
ATOM     19  H   UNL     1      19.089  19.555  50.529  0.00  0.00    +0.000 HD
ENDBRANCH  17  18
ENDBRANCH   7  12
BRANCH   6  20
ATOM     20  O   UNL     1      14.337  18.241  40.749  0.00  0.00    +0.000 OA
ATOM     21  H   UNL     1      13.833  19.080  40.825  0.00  0.00    +0.000 HD
ENDBRANCH   6  20
BRANCH  11  22
ATOM     22  O   UNL     1      11.782  15.088  43.198  0.00  0.00    +0.000 OA
BRANCH  22  23
ATOM     23  C   UNL     1      11.781  13.835  43.922  0.00  0.00    +0.000 C 
ATOM     24  O   UNL     1      10.510  13.621  44.592  0.00  0.00    +0.000 OA
ATOM     25  C   UNL     1      12.028  12.675  42.935  0.00  0.00    +0.000 C 
ATOM     26  C   UNL     1       9.340  13.588  43.730  0.00  0.00    +0.000 C 
ATOM     27  C   UNL     1      10.826  12.498  41.973  0.00  0.00    +0.000 C 
ATOM     28  C   UNL     1       9.480  12.408  42.736  0.00  0.00    +0.000 C 
BRANCH  28  29
ATOM     29  O   UNL     1       8.393  12.426  41.799  0.00  0.00    +0.000 OA
ATOM     30  H   UNL     1       7.827  13.203  41.967  0.00  0.00    +0.000 HD
ENDBRANCH  28  29
BRANCH  25  31
ATOM     31  O   UNL     1      12.238  11.477  43.688  0.00  0.00    +0.000 OA
ATOM     32  H   UNL     1      13.161  11.491  43.996  0.00  0.00    +0.000 HD
ENDBRANCH  25  31
BRANCH  27  33
ATOM     33  O   UNL     1      11.023  11.300  41.216  0.00  0.00    +0.000 OA
ATOM     34  H   UNL     1      11.935  11.345  40.867  0.00  0.00    +0.000 HD
ENDBRANCH  27  33
BRANCH  26  35
ATOM     35  C   UNL     1       8.093  13.465  44.631  0.00  0.00    +0.000 C 
BRANCH  35  36
ATOM     36  O   UNL     1       6.905  13.751  43.887  0.00  0.00    +0.000 OA
ATOM     37  H   UNL     1       7.172  14.234  43.084  0.00  0.00    +0.000 HD
ENDBRANCH  35  36
ENDBRANCH  26  35
ENDBRANCH  22  23
ENDBRANCH  11  22
TORSDOF 10
ENDMDL
MODEL 17
REMARK VINA RESULT:    -5.756      2.370      8.798
REMARK INTER + INTRA:          -8.976
REMARK INTER:                  -8.305
REMARK INTRA:                  -0.671
REMARK UNBOUND:                -0.865
REMARK  Name = opt58.pdb
REMARK  10 active torsions:
REMARK  status: ('A' for Active; 'I' for Inactive)
REMARK    1  A    between atoms: C_6  and  O_10
REMARK    2  A    between atoms: C_7  and  C_12
REMARK    3  A    between atoms: C_13  and  O_16
REMARK    4  A    between atoms: O_16  and  C_19
REMARK    5  A    between atoms: C_20  and  O_23
REMARK    6  A    between atoms: C_22  and  O_25
REMARK    7  A    between atoms: C_24  and  C_28
REMARK    8  A    between atoms: C_26  and  O_29
REMARK    9  A    between atoms: C_27  and  O_30
REMARK   10  A    between atoms: C_28  and  O_31
REMARK                            x       y       z     vdW  Elec       q    Type
REMARK                         _______ _______ _______ _____ _____    ______ ____
ROOT
ATOM      1  O   UNL     1      11.732  11.424  43.483  0.00  0.00    +0.000 OA
ATOM      2  C   UNL     1      11.811  12.627  43.642  0.00  0.00    +0.000 C 
ATOM      3  C   UNL     1      13.121  13.362  43.786  0.00  0.00    +0.000 A 
ATOM      4  C   UNL     1      10.543  13.442  43.770  0.00  0.00    +0.000 C 
ATOM      5  C   UNL     1      13.098  14.754  43.950  0.00  0.00    +0.000 A 
ATOM      6  C   UNL     1      14.362  12.705  43.781  0.00  0.00    +0.000 A 
ATOM      7  C   UNL     1      10.758  14.875  43.251  0.00  0.00    +0.000 C 
ATOM      8  O   UNL     1      11.902  15.446  43.927  0.00  0.00    +0.000 OA
ATOM      9  C   UNL     1      14.275  15.468  44.155  0.00  0.00    +0.000 A 
ATOM     10  C   UNL     1      15.539  13.425  43.974  0.00  0.00    +0.000 A 
ATOM     11  C   UNL     1      15.503  14.800  44.184  0.00  0.00    +0.000 A 
ENDROOT
BRANCH   7  12
ATOM     12  C   UNL     1       9.529  15.736  43.486  0.00  0.00    +0.000 A 
ATOM     13  C   UNL     1       8.266  15.158  43.645  0.00  0.00    +0.000 A 
ATOM     14  C   UNL     1       9.657  17.125  43.495  0.00  0.00    +0.000 A 
ATOM     15  C   UNL     1       7.144  15.964  43.816  0.00  0.00    +0.000 A 
ATOM     16  C   UNL     1       8.534  17.932  43.661  0.00  0.00    +0.000 A 
ATOM     17  C   UNL     1       7.280  17.351  43.821  0.00  0.00    +0.000 A 
BRANCH  17  18
ATOM     18  O   UNL     1       6.183  18.139  43.971  0.00  0.00    +0.000 OA
ATOM     19  H   UNL     1       6.461  19.068  43.906  0.00  0.00    +0.000 HD
ENDBRANCH  17  18
ENDBRANCH   7  12
BRANCH   6  20
ATOM     20  O   UNL     1      14.450  11.354  43.630  0.00  0.00    +0.000 OA
ATOM     21  H   UNL     1      15.211  11.048  44.170  0.00  0.00    +0.000 HD
ENDBRANCH   6  20
BRANCH  11  22
ATOM     22  O   UNL     1      16.695  15.444  44.468  0.00  0.00    +0.000 OA
BRANCH  22  23
ATOM     23  C   UNL     1      17.972  14.762  44.464  0.00  0.00    +0.000 C 
ATOM     24  O   UNL     1      18.300  14.280  43.133  0.00  0.00    +0.000 OA
ATOM     25  C   UNL     1      19.073  15.737  44.929  0.00  0.00    +0.000 C 
ATOM     26  C   UNL     1      18.383  15.296  42.097  0.00  0.00    +0.000 C 
ATOM     27  C   UNL     1      19.298  16.861  43.885  0.00  0.00    +0.000 C 
ATOM     28  C   UNL     1      19.512  16.293  42.458  0.00  0.00    +0.000 C 
BRANCH  28  29
ATOM     29  O   UNL     1      19.536  17.370  41.511  0.00  0.00    +0.000 OA
ATOM     30  H   UNL     1      19.751  17.023  40.624  0.00  0.00    +0.000 HD
ENDBRANCH  28  29
BRANCH  25  31
ATOM     31  O   UNL     1      20.281  14.996  45.125  0.00  0.00    +0.000 OA
ATOM     32  H   UNL     1      20.032  14.143  45.522  0.00  0.00    +0.000 HD
ENDBRANCH  25  31
BRANCH  27  33
ATOM     33  O   UNL     1      20.450  17.616  44.272  0.00  0.00    +0.000 OA
ATOM     34  H   UNL     1      20.790  18.031  43.456  0.00  0.00    +0.000 HD
ENDBRANCH  27  33
BRANCH  26  35
ATOM     35  C   UNL     1      18.629  14.579  40.752  0.00  0.00    +0.000 C 
BRANCH  35  36
ATOM     36  O   UNL     1      20.031  14.484  40.483  0.00  0.00    +0.000 OA
ATOM     37  H   UNL     1      20.421  15.360  40.651  0.00  0.00    +0.000 HD
ENDBRANCH  35  36
ENDBRANCH  26  35
ENDBRANCH  22  23
ENDBRANCH  11  22
TORSDOF 10
ENDMDL
MODEL 18
REMARK VINA RESULT:    -5.509      3.427      5.858
REMARK INTER + INTRA:          -8.628
REMARK INTER:                  -7.703
REMARK INTRA:                  -0.926
REMARK UNBOUND:                -0.865
REMARK  Name = opt58.pdb
REMARK  10 active torsions:
REMARK  status: ('A' for Active; 'I' for Inactive)
REMARK    1  A    between atoms: C_6  and  O_10
REMARK    2  A    between atoms: C_7  and  C_12
REMARK    3  A    between atoms: C_13  and  O_16
REMARK    4  A    between atoms: O_16  and  C_19
REMARK    5  A    between atoms: C_20  and  O_23
REMARK    6  A    between atoms: C_22  and  O_25
REMARK    7  A    between atoms: C_24  and  C_28
REMARK    8  A    between atoms: C_26  and  O_29
REMARK    9  A    between atoms: C_27  and  O_30
REMARK   10  A    between atoms: C_28  and  O_31
REMARK                            x       y       z     vdW  Elec       q    Type
REMARK                         _______ _______ _______ _____ _____    ______ ____
ROOT
ATOM      1  O   UNL     1      12.894  20.032  44.120  0.00  0.00    +0.000 OA
ATOM      2  C   UNL     1      13.056  18.830  44.030  0.00  0.00    +0.000 C 
ATOM      3  C   UNL     1      11.951  17.867  43.674  0.00  0.00    +0.000 A 
ATOM      4  C   UNL     1      14.411  18.240  44.352  0.00  0.00    +0.000 C 
ATOM      5  C   UNL     1      12.251  16.501  43.583  0.00  0.00    +0.000 A 
ATOM      6  C   UNL     1      10.628  18.282  43.447  0.00  0.00    +0.000 A 
ATOM      7  C   UNL     1      14.653  16.953  43.543  0.00  0.00    +0.000 C 
ATOM      8  O   UNL     1      13.544  16.050  43.764  0.00  0.00    +0.000 OA
ATOM      9  C   UNL     1      11.252  15.567  43.324  0.00  0.00    +0.000 A 
ATOM     10  C   UNL     1       9.634  17.345  43.176  0.00  0.00    +0.000 A 
ATOM     11  C   UNL     1       9.932  15.986  43.135  0.00  0.00    +0.000 A 
ENDROOT
BRANCH   7  12
ATOM     12  C   UNL     1      15.957  16.286  43.947  0.00  0.00    +0.000 A 
ATOM     13  C   UNL     1      16.798  16.870  44.898  0.00  0.00    +0.000 A 
ATOM     14  C   UNL     1      16.342  15.099  43.323  0.00  0.00    +0.000 A 
ATOM     15  C   UNL     1      18.010  16.268  45.224  0.00  0.00    +0.000 A 
ATOM     16  C   UNL     1      17.557  14.499  43.645  0.00  0.00    +0.000 A 
ATOM     17  C   UNL     1      18.389  15.084  44.595  0.00  0.00    +0.000 A 
BRANCH  17  18
ATOM     18  O   UNL     1      19.579  14.504  44.900  0.00  0.00    +0.000 OA
ATOM     19  H   UNL     1      20.293  15.110  44.639  0.00  0.00    +0.000 HD
ENDBRANCH  17  18
ENDBRANCH   7  12
BRANCH   6  20
ATOM     20  O   UNL     1      10.273  19.595  43.525  0.00  0.00    +0.000 OA
ATOM     21  H   UNL     1       9.929  19.752  44.432  0.00  0.00    +0.000 HD
ENDBRANCH   6  20
BRANCH  11  22
ATOM     22  O   UNL     1       8.885  15.098  42.960  0.00  0.00    +0.000 OA
BRANCH  22  23
ATOM     23  C   UNL     1       7.510  15.529  42.815  0.00  0.00    +0.000 C 
ATOM     24  O   UNL     1       6.866  14.850  41.704  0.00  0.00    +0.000 OA
ATOM     25  C   UNL     1       6.737  15.213  44.112  0.00  0.00    +0.000 C 
ATOM     26  C   UNL     1       6.825  13.399  41.789  0.00  0.00    +0.000 C 
ATOM     27  C   UNL     1       6.581  13.683  44.308  0.00  0.00    +0.000 C 
ATOM     28  C   UNL     1       6.012  12.991  43.043  0.00  0.00    +0.000 C 
BRANCH  28  29
ATOM     29  O   UNL     1       6.057  11.567  43.213  0.00  0.00    +0.000 OA
ATOM     30  H   UNL     1       5.161  11.195  43.104  0.00  0.00    +0.000 HD
ENDBRANCH  28  29
BRANCH  25  31
ATOM     31  O   UNL     1       5.451  15.834  44.035  0.00  0.00    +0.000 OA
ATOM     32  H   UNL     1       5.116  15.914  44.945  0.00  0.00    +0.000 HD
ENDBRANCH  25  31
BRANCH  27  33
ATOM     33  O   UNL     1       5.700  13.455  45.411  0.00  0.00    +0.000 OA
ATOM     34  H   UNL     1       5.496  12.499  45.403  0.00  0.00    +0.000 HD
ENDBRANCH  27  33
BRANCH  26  35
ATOM     35  C   UNL     1       6.208  12.867  40.479  0.00  0.00    +0.000 C 
BRANCH  35  36
ATOM     36  O   UNL     1       6.636  11.525  40.230  0.00  0.00    +0.000 OA
ATOM     37  H   UNL     1       5.875  11.038  39.866  0.00  0.00    +0.000 HD
ENDBRANCH  35  36
ENDBRANCH  26  35
ENDBRANCH  22  23
ENDBRANCH  11  22
TORSDOF 10
ENDMDL
