MODEL 1
REMARK VINA RESULT:    -5.267      0.000      0.000
REMARK INTER + INTRA:          -6.313
REMARK INTER:                  -6.191
REMARK INTRA:                  -0.122
REMARK UNBOUND:                -0.122
REMARK  Name = opt08.pdb
REMARK  4 active torsions:
REMARK  status: ('A' for Active; 'I' for Inactive)
REMARK    1  A    between atoms: C_2  and  C_4
REMARK    2  A    between atoms: C_5  and  C_6
REMARK    3  A    between atoms: C_9  and  O_11
REMARK    4  A    between atoms: C_12  and  O_13
REMARK                            x       y       z     vdW  Elec       q    Type
REMARK                         _______ _______ _______ _____ _____    ______ ____
ROOT
ATOM      1  C   UNL     1      11.967  12.583  43.483  0.00  0.00    +0.000 A 
ATOM      2  C   UNL     1      12.753  11.451  43.710  0.00  0.00    +0.000 A 
ATOM      3  C   UNL     1      12.445  13.842  43.851  0.00  0.00    +0.000 A 
ATOM      4  C   UNL     1      14.009  11.580  44.302  0.00  0.00    +0.000 A 
ATOM      5  C   UNL     1      13.703  13.974  44.435  0.00  0.00    +0.000 A 
ATOM      6  C   UNL     1      14.483  12.840  44.657  0.00  0.00    +0.000 A 
ENDROOT
BRANCH   1   8
ATOM      7  C   UNL     1       9.436  12.433  43.422  0.00  0.00    +0.000 C 
ATOM      8  C   UNL     1      10.643  12.459  42.838  0.00  0.00    +0.000 C 
BRANCH   7  10
ATOM      9  O   UNL     1       7.550  11.236  42.882  0.00  0.00    +0.000 OA
ATOM     10  C   UNL     1       8.127  12.297  42.748  0.00  0.00    +0.000 C 
ATOM     11  O   UNL     1       7.715  13.238  42.101  0.00  0.00    +0.000 OA
ENDBRANCH   7  10
ENDBRANCH   1   8
BRANCH   4  12
ATOM     12  O   UNL     1      14.789  10.482  44.542  0.00  0.00    +0.000 OA
ATOM     13  H   UNL     1      14.548  10.104  45.406  0.00  0.00    +0.000 HD
ENDBRANCH   4  12
BRANCH   6  14
ATOM     14  O   UNL     1      15.719  12.936  45.219  0.00  0.00    +0.000 OA
ATOM     15  H   UNL     1      15.560  13.304  46.113  0.00  0.00    +0.000 HD
ENDBRANCH   6  14
TORSDOF 4
ENDMDL
MODEL 2
REMARK VINA RESULT:    -5.116      2.451      3.352
REMARK INTER + INTRA:          -6.135
REMARK INTER:                  -6.008
REMARK INTRA:                  -0.127
REMARK UNBOUND:                -0.122
REMARK  Name = opt08.pdb
REMARK  4 active torsions:
REMARK  status: ('A' for Active; 'I' for Inactive)
REMARK    1  A    between atoms: C_2  and  C_4
REMARK    2  A    between atoms: C_5  and  C_6
REMARK    3  A    between atoms: C_9  and  O_11
REMARK    4  A    between atoms: C_12  and  O_13
REMARK                            x       y       z     vdW  Elec       q    Type
REMARK                         _______ _______ _______ _____ _____    ______ ____
ROOT
ATOM      1  C   UNL     1      14.596  13.718  43.328  0.00  0.00    +0.000 A 
ATOM      2  C   UNL     1      14.893  13.514  44.678  0.00  0.00    +0.000 A 
ATOM      3  C   UNL     1      15.607  14.116  42.451  0.00  0.00    +0.000 A 
ATOM      4  C   UNL     1      16.192  13.708  45.145  0.00  0.00    +0.000 A 
ATOM      5  C   UNL     1      16.907  14.302  42.914  0.00  0.00    +0.000 A 
ATOM      6  C   UNL     1      17.197  14.095  44.261  0.00  0.00    +0.000 A 
ENDROOT
BRANCH   1   8
ATOM      7  C   UNL     1      12.764  12.456  42.111  0.00  0.00    +0.000 C 
ATOM      8  C   UNL     1      13.226  13.497  42.820  0.00  0.00    +0.000 C 
BRANCH   7  10
ATOM      9  O   UNL     1      11.245  11.502  40.675  0.00  0.00    +0.000 OA
ATOM     10  C   UNL     1      11.387  12.269  41.606  0.00  0.00    +0.000 C 
ATOM     11  O   UNL     1      10.491  12.892  42.138  0.00  0.00    +0.000 OA
ENDBRANCH   7  10
ENDBRANCH   1   8
BRANCH   4  12
ATOM     12  O   UNL     1      16.499  13.523  46.464  0.00  0.00    +0.000 OA
ATOM     13  H   UNL     1      15.750  13.087  46.907  0.00  0.00    +0.000 HD
ENDBRANCH   4  12
BRANCH   6  14
ATOM     14  O   UNL     1      18.459  14.261  44.744  0.00  0.00    +0.000 OA
ATOM     15  H   UNL     1      18.632  13.454  45.272  0.00  0.00    +0.000 HD
ENDBRANCH   6  14
TORSDOF 4
ENDMDL
MODEL 3
REMARK VINA RESULT:    -5.064      2.726      6.258
REMARK INTER + INTRA:          -6.074
REMARK INTER:                  -5.950
REMARK INTRA:                  -0.124
REMARK UNBOUND:                -0.122
REMARK  Name = opt08.pdb
REMARK  4 active torsions:
REMARK  status: ('A' for Active; 'I' for Inactive)
REMARK    1  A    between atoms: C_2  and  C_4
REMARK    2  A    between atoms: C_5  and  C_6
REMARK    3  A    between atoms: C_9  and  O_11
REMARK    4  A    between atoms: C_12  and  O_13
REMARK                            x       y       z     vdW  Elec       q    Type
REMARK                         _______ _______ _______ _____ _____    ______ ____
ROOT
ATOM      1  C   UNL     1      14.464  14.000  44.423  0.00  0.00    +0.000 A 
ATOM      2  C   UNL     1      15.042  12.739  44.589  0.00  0.00    +0.000 A 
ATOM      3  C   UNL     1      13.139  14.103  43.994  0.00  0.00    +0.000 A 
ATOM      4  C   UNL     1      14.297  11.589  44.326  0.00  0.00    +0.000 A 
ATOM      5  C   UNL     1      12.391  12.955  43.738  0.00  0.00    +0.000 A 
ATOM      6  C   UNL     1      12.973  11.700  43.908  0.00  0.00    +0.000 A 
ENDROOT
BRANCH   1   8
ATOM      7  C   UNL     1      16.386  15.334  45.404  0.00  0.00    +0.000 C 
ATOM      8  C   UNL     1      15.238  15.224  44.718  0.00  0.00    +0.000 C 
BRANCH   7  10
ATOM      9  O   UNL     1      18.329  16.556  45.493  0.00  0.00    +0.000 OA
ATOM     10  C   UNL     1      17.131  16.577  45.692  0.00  0.00    +0.000 C 
ATOM     11  O   UNL     1      16.512  17.532  46.114  0.00  0.00    +0.000 OA
ENDBRANCH   7  10
ENDBRANCH   1   8
BRANCH   4  12
ATOM     12  O   UNL     1      14.848  10.347  44.473  0.00  0.00    +0.000 OA
ATOM     13  H   UNL     1      14.470   9.923  45.264  0.00  0.00    +0.000 HD
ENDBRANCH   4  12
BRANCH   6  14
ATOM     14  O   UNL     1      12.267  10.560  43.674  0.00  0.00    +0.000 OA
ATOM     15  H   UNL     1      12.912   9.835  43.813  0.00  0.00    +0.000 HD
ENDBRANCH   6  14
TORSDOF 4
ENDMDL
MODEL 4
REMARK VINA RESULT:    -4.984      3.131      4.600
REMARK INTER + INTRA:          -5.980
REMARK INTER:                  -5.861
REMARK INTRA:                  -0.119
REMARK UNBOUND:                -0.122
REMARK  Name = opt08.pdb
REMARK  4 active torsions:
REMARK  status: ('A' for Active; 'I' for Inactive)
REMARK    1  A    between atoms: C_2  and  C_4
REMARK    2  A    between atoms: C_5  and  C_6
REMARK    3  A    between atoms: C_9  and  O_11
REMARK    4  A    between atoms: C_12  and  O_13
REMARK                            x       y       z     vdW  Elec       q    Type
REMARK                         _______ _______ _______ _____ _____    ______ ____
ROOT
ATOM      1  C   UNL     1      13.675  14.461  44.135  0.00  0.00    +0.000 A 
ATOM      2  C   UNL     1      12.778  13.436  43.822  0.00  0.00    +0.000 A 
ATOM      3  C   UNL     1      14.967  14.143  44.557  0.00  0.00    +0.000 A 
ATOM      4  C   UNL     1      13.173  12.103  43.933  0.00  0.00    +0.000 A 
ATOM      5  C   UNL     1      15.366  12.812  44.661  0.00  0.00    +0.000 A 
ATOM      6  C   UNL     1      14.467  11.795  44.346  0.00  0.00    +0.000 A 
ENDROOT
BRANCH   1   8
ATOM      7  C   UNL     1      12.580  16.626  44.872  0.00  0.00    +0.000 C 
ATOM      8  C   UNL     1      13.272  15.876  44.002  0.00  0.00    +0.000 C 
BRANCH   7  10
ATOM      9  O   UNL     1      12.795  18.862  45.355  0.00  0.00    +0.000 OA
ATOM     10  C   UNL     1      12.182  18.040  44.704  0.00  0.00    +0.000 C 
ATOM     11  O   UNL     1      11.271  18.292  43.942  0.00  0.00    +0.000 OA
ENDBRANCH   7  10
ENDBRANCH   1   8
BRANCH   4  12
ATOM     12  O   UNL     1      12.306  11.087  43.641  0.00  0.00    +0.000 OA
ATOM     13  H   UNL     1      11.516  11.458  43.210  0.00  0.00    +0.000 HD
ENDBRANCH   4  12
BRANCH   6  14
ATOM     14  O   UNL     1      14.828  10.485  44.429  0.00  0.00    +0.000 OA
ATOM     15  H   UNL     1      15.582  10.473  45.055  0.00  0.00    +0.000 HD
ENDBRANCH   6  14
TORSDOF 4
ENDMDL
MODEL 5
REMARK VINA RESULT:    -4.980      3.170      7.046
REMARK INTER + INTRA:          -5.975
REMARK INTER:                  -5.853
REMARK INTRA:                  -0.121
REMARK UNBOUND:                -0.122
REMARK  Name = opt08.pdb
REMARK  4 active torsions:
REMARK  status: ('A' for Active; 'I' for Inactive)
REMARK    1  A    between atoms: C_2  and  C_4
REMARK    2  A    between atoms: C_5  and  C_6
REMARK    3  A    between atoms: C_9  and  O_11
REMARK    4  A    between atoms: C_12  and  O_13
REMARK                            x       y       z     vdW  Elec       q    Type
REMARK                         _______ _______ _______ _____ _____    ______ ____
ROOT
ATOM      1  C   UNL     1      15.646  14.104  44.710  0.00  0.00    +0.000 A 
ATOM      2  C   UNL     1      15.188  12.784  44.698  0.00  0.00    +0.000 A 
ATOM      3  C   UNL     1      14.729  15.155  44.654  0.00  0.00    +0.000 A 
ATOM      4  C   UNL     1      13.820  12.520  44.630  0.00  0.00    +0.000 A 
ATOM      5  C   UNL     1      13.362  14.893  44.594  0.00  0.00    +0.000 A 
ATOM      6  C   UNL     1      12.911  13.575  44.585  0.00  0.00    +0.000 A 
ENDROOT
BRANCH   1   8
ATOM      7  C   UNL     1      18.002  14.394  43.816  0.00  0.00    +0.000 C 
ATOM      8  C   UNL     1      17.093  14.394  44.802  0.00  0.00    +0.000 C 
BRANCH   7  10
ATOM      9  O   UNL     1      19.983  14.337  44.978  0.00  0.00    +0.000 OA
ATOM     10  C   UNL     1      19.447  14.678  43.943  0.00  0.00    +0.000 C 
ATOM     11  O   UNL     1      20.005  15.237  43.021  0.00  0.00    +0.000 OA
ENDBRANCH   7  10
ENDBRANCH   1   8
BRANCH   4  12
ATOM     12  O   UNL     1      13.353  11.236  44.607  0.00  0.00    +0.000 OA
ATOM     13  H   UNL     1      13.661  10.772  45.406  0.00  0.00    +0.000 HD
ENDBRANCH   4  12
BRANCH   6  14
ATOM     14  O   UNL     1      11.582  13.285  44.535  0.00  0.00    +0.000 OA
ATOM     15  H   UNL     1      11.252  13.471  45.439  0.00  0.00    +0.000 HD
ENDBRANCH   6  14
TORSDOF 4
ENDMDL
MODEL 6
REMARK VINA RESULT:    -4.844      2.797      5.240
REMARK INTER + INTRA:          -5.816
REMARK INTER:                  -5.675
REMARK INTRA:                  -0.141
REMARK UNBOUND:                -0.122
REMARK  Name = opt08.pdb
REMARK  4 active torsions:
REMARK  status: ('A' for Active; 'I' for Inactive)
REMARK    1  A    between atoms: C_2  and  C_4
REMARK    2  A    between atoms: C_5  and  C_6
REMARK    3  A    between atoms: C_9  and  O_11
REMARK    4  A    between atoms: C_12  and  O_13
REMARK                            x       y       z     vdW  Elec       q    Type
REMARK                         _______ _______ _______ _____ _____    ______ ____
ROOT
ATOM      1  C   UNL     1      13.704  14.123  44.356  0.00  0.00    +0.000 A 
ATOM      2  C   UNL     1      14.514  13.014  44.614  0.00  0.00    +0.000 A 
ATOM      3  C   UNL     1      12.433  13.938  43.810  0.00  0.00    +0.000 A 
ATOM      4  C   UNL     1      14.053  11.730  44.326  0.00  0.00    +0.000 A 
ATOM      5  C   UNL     1      11.967  12.655  43.529  0.00  0.00    +0.000 A 
ATOM      6  C   UNL     1      12.779  11.553  43.791  0.00  0.00    +0.000 A 
ENDROOT
BRANCH   1   8
ATOM      7  C   UNL     1      13.445  16.600  44.838  0.00  0.00    +0.000 C 
ATOM      8  C   UNL     1      14.176  15.487  44.675  0.00  0.00    +0.000 C 
BRANCH   7  10
ATOM      9  O   UNL     1      15.005  18.023  45.742  0.00  0.00    +0.000 OA
ATOM     10  C   UNL     1      13.949  17.954  45.146  0.00  0.00    +0.000 C 
ATOM     11  O   UNL     1      13.282  18.907  44.799  0.00  0.00    +0.000 OA
ENDBRANCH   7  10
ENDBRANCH   1   8
BRANCH   4  12
ATOM     12  O   UNL     1      14.835  10.634  44.562  0.00  0.00    +0.000 OA
ATOM     13  H   UNL     1      14.746  10.014  43.817  0.00  0.00    +0.000 HD
ENDBRANCH   4  12
BRANCH   6  14
ATOM     14  O   UNL     1      12.351  10.287  43.535  0.00  0.00    +0.000 OA
ATOM     15  H   UNL     1      11.485  10.401  43.091  0.00  0.00    +0.000 HD
ENDBRANCH   6  14
TORSDOF 4
ENDMDL
MODEL 7
REMARK VINA RESULT:    -4.820      1.756      5.927
REMARK INTER + INTRA:          -5.787
REMARK INTER:                  -5.663
REMARK INTRA:                  -0.124
REMARK UNBOUND:                -0.122
REMARK  Name = opt08.pdb
REMARK  4 active torsions:
REMARK  status: ('A' for Active; 'I' for Inactive)
REMARK    1  A    between atoms: C_2  and  C_4
REMARK    2  A    between atoms: C_5  and  C_6
REMARK    3  A    between atoms: C_9  and  O_11
REMARK    4  A    between atoms: C_12  and  O_13
REMARK                            x       y       z     vdW  Elec       q    Type
REMARK                         _______ _______ _______ _____ _____    ______ ____
ROOT
ATOM      1  C   UNL     1      12.676  13.399  44.036  0.00  0.00    +0.000 A 
ATOM      2  C   UNL     1      12.678  12.663  42.849  0.00  0.00    +0.000 A 
ATOM      3  C   UNL     1      11.461  13.762  44.622  0.00  0.00    +0.000 A 
ATOM      4  C   UNL     1      11.472  12.294  42.253  0.00  0.00    +0.000 A 
ATOM      5  C   UNL     1      10.256  13.387  44.032  0.00  0.00    +0.000 A 
ATOM      6  C   UNL     1      10.265  12.651  42.849  0.00  0.00    +0.000 A 
ENDROOT
BRANCH   1   8
ATOM      7  C   UNL     1      15.195  13.435  44.330  0.00  0.00    +0.000 C 
ATOM      8  C   UNL     1      13.948  13.778  44.686  0.00  0.00    +0.000 C 
BRANCH   7  10
ATOM      9  O   UNL     1      17.328  14.289  44.313  0.00  0.00    +0.000 OA
ATOM     10  C   UNL     1      16.449  13.822  45.010  0.00  0.00    +0.000 C 
ATOM     11  O   UNL     1      16.530  13.644  46.208  0.00  0.00    +0.000 OA
ENDBRANCH   7  10
ENDBRANCH   1   8
BRANCH   4  12
ATOM     12  O   UNL     1      11.455  11.582  41.085  0.00  0.00    +0.000 OA
ATOM     13  H   UNL     1      11.433  12.203  40.336  0.00  0.00    +0.000 HD
ENDBRANCH   4  12
BRANCH   6  14
ATOM     14  O   UNL     1       9.105  12.263  42.252  0.00  0.00    +0.000 OA
ATOM     15  H   UNL     1       8.427  12.331  42.956  0.00  0.00    +0.000 HD
ENDBRANCH   6  14
TORSDOF 4
ENDMDL
MODEL 8
REMARK VINA RESULT:    -4.808      2.568      3.397
REMARK INTER + INTRA:          -5.773
REMARK INTER:                  -5.649
REMARK INTRA:                  -0.124
REMARK UNBOUND:                -0.122
REMARK  Name = opt08.pdb
REMARK  4 active torsions:
REMARK  status: ('A' for Active; 'I' for Inactive)
REMARK    1  A    between atoms: C_2  and  C_4
REMARK    2  A    between atoms: C_5  and  C_6
REMARK    3  A    between atoms: C_9  and  O_11
REMARK    4  A    between atoms: C_12  and  O_13
REMARK                            x       y       z     vdW  Elec       q    Type
REMARK                         _______ _______ _______ _____ _____    ______ ____
ROOT
ATOM      1  C   UNL     1      14.566  13.053  43.726  0.00  0.00    +0.000 A 
ATOM      2  C   UNL     1      15.579  13.325  42.802  0.00  0.00    +0.000 A 
ATOM      3  C   UNL     1      14.790  13.287  45.085  0.00  0.00    +0.000 A 
ATOM      4  C   UNL     1      16.806  13.825  43.237  0.00  0.00    +0.000 A 
ATOM      5  C   UNL     1      16.012  13.794  45.520  0.00  0.00    +0.000 A 
ATOM      6  C   UNL     1      17.017  14.064  44.592  0.00  0.00    +0.000 A 
ENDROOT
BRANCH   1   8
ATOM      7  C   UNL     1      12.694  12.658  42.062  0.00  0.00    +0.000 C 
ATOM      8  C   UNL     1      13.256  12.541  43.274  0.00  0.00    +0.000 C 
BRANCH   7  10
ATOM      9  O   UNL     1      11.334  11.512  40.607  0.00  0.00    +0.000 OA
ATOM     10  C   UNL     1      11.373  12.143  41.643  0.00  0.00    +0.000 C 
ATOM     11  O   UNL     1      10.414  12.387  42.347  0.00  0.00    +0.000 OA
ENDBRANCH   7  10
ENDBRANCH   1   8
BRANCH   4  12
ATOM     12  O   UNL     1      17.811  14.087  42.348  0.00  0.00    +0.000 OA
ATOM     13  H   UNL     1      17.888  15.050  42.230  0.00  0.00    +0.000 HD
ENDBRANCH   4  12
BRANCH   6  14
ATOM     14  O   UNL     1      18.219  14.568  44.984  0.00  0.00    +0.000 OA
ATOM     15  H   UNL     1      18.811  14.428  44.215  0.00  0.00    +0.000 HD
ENDBRANCH   6  14
TORSDOF 4
ENDMDL
MODEL 9
REMARK VINA RESULT:    -4.802      2.572      3.455
REMARK INTER + INTRA:          -5.766
REMARK INTER:                  -5.645
REMARK INTRA:                  -0.121
REMARK UNBOUND:                -0.122
REMARK  Name = opt08.pdb
REMARK  4 active torsions:
REMARK  status: ('A' for Active; 'I' for Inactive)
REMARK    1  A    between atoms: C_2  and  C_4
REMARK    2  A    between atoms: C_5  and  C_6
REMARK    3  A    between atoms: C_9  and  O_11
REMARK    4  A    between atoms: C_12  and  O_13
REMARK                            x       y       z     vdW  Elec       q    Type
REMARK                         _______ _______ _______ _____ _____    ______ ____
ROOT
ATOM      1  C   UNL     1      13.066  14.015  43.799  0.00  0.00    +0.000 A 
ATOM      2  C   UNL     1      12.417  12.792  43.607  0.00  0.00    +0.000 A 
ATOM      3  C   UNL     1      14.391  14.032  44.238  0.00  0.00    +0.000 A 
ATOM      4  C   UNL     1      13.091  11.597  43.853  0.00  0.00    +0.000 A 
ATOM      5  C   UNL     1      15.069  12.838  44.477  0.00  0.00    +0.000 A 
ATOM      6  C   UNL     1      14.416  11.622  44.281  0.00  0.00    +0.000 A 
ENDROOT
BRANCH   1   8
ATOM      7  C   UNL     1      11.107  15.626  43.836  0.00  0.00    +0.000 C 
ATOM      8  C   UNL     1      12.367  15.287  43.522  0.00  0.00    +0.000 C 
BRANCH   7  10
ATOM      9  O   UNL     1      11.129  17.805  43.109  0.00  0.00    +0.000 OA
ATOM     10  C   UNL     1      10.432  16.905  43.534  0.00  0.00    +0.000 C 
ATOM     11  O   UNL     1       9.237  16.985  43.735  0.00  0.00    +0.000 OA
ENDBRANCH   7  10
ENDBRANCH   1   8
BRANCH   4  12
ATOM     12  O   UNL     1      12.469  10.391  43.681  0.00  0.00    +0.000 OA
ATOM     13  H   UNL     1      11.675  10.361  44.243  0.00  0.00    +0.000 HD
ENDBRANCH   4  12
BRANCH   6  14
ATOM     14  O   UNL     1      15.052  10.439  44.498  0.00  0.00    +0.000 OA
ATOM     15  H   UNL     1      15.333  10.474  45.436  0.00  0.00    +0.000 HD
ENDBRANCH   6  14
TORSDOF 4
ENDMDL
MODEL 10
REMARK VINA RESULT:    -4.772      2.367      3.054
REMARK INTER + INTRA:          -5.731
REMARK INTER:                  -5.610
REMARK INTRA:                  -0.121
REMARK UNBOUND:                -0.122
REMARK  Name = opt08.pdb
REMARK  4 active torsions:
REMARK  status: ('A' for Active; 'I' for Inactive)
REMARK    1  A    between atoms: C_2  and  C_4
REMARK    2  A    between atoms: C_5  and  C_6
REMARK    3  A    between atoms: C_9  and  O_11
REMARK    4  A    between atoms: C_12  and  O_13
REMARK                            x       y       z     vdW  Elec       q    Type
REMARK                         _______ _______ _______ _____ _____    ______ ____
ROOT
ATOM      1  C   UNL     1      12.690  14.011  43.967  0.00  0.00    +0.000 A 
ATOM      2  C   UNL     1      12.173  12.734  43.737  0.00  0.00    +0.000 A 
ATOM      3  C   UNL     1      14.017  14.156  44.380  0.00  0.00    +0.000 A 
ATOM      4  C   UNL     1      12.979  11.610  43.919  0.00  0.00    +0.000 A 
ATOM      5  C   UNL     1      14.825  13.034  44.555  0.00  0.00    +0.000 A 
ATOM      6  C   UNL     1      14.303  11.764  44.322  0.00  0.00    +0.000 A 
ENDROOT
BRANCH   1   8
ATOM      7  C   UNL     1      10.523  15.326  43.903  0.00  0.00    +0.000 C 
ATOM      8  C   UNL     1      11.851  15.209  43.757  0.00  0.00    +0.000 C 
BRANCH   7  10
ATOM      9  O   UNL     1       8.506  16.386  43.601  0.00  0.00    +0.000 OA
ATOM     10  C   UNL     1       9.709  16.539  43.673  0.00  0.00    +0.000 C 
ATOM     11  O   UNL     1      10.284  17.603  43.563  0.00  0.00    +0.000 OA
ENDBRANCH   7  10
ENDBRANCH   1   8
BRANCH   4  12
ATOM     12  O   UNL     1      12.487  10.352  43.709  0.00  0.00    +0.000 OA
ATOM     13  H   UNL     1      12.996   9.718  44.244  0.00  0.00    +0.000 HD
ENDBRANCH   4  12
BRANCH   6  14
ATOM     14  O   UNL     1      15.069  10.649  44.476  0.00  0.00    +0.000 OA
ATOM     15  H   UNL     1      15.967  10.988  44.676  0.00  0.00    +0.000 HD
ENDBRANCH   6  14
TORSDOF 4
ENDMDL
MODEL 11
REMARK VINA RESULT:    -4.768      0.876      1.037
REMARK INTER + INTRA:          -5.726
REMARK INTER:                  -5.606
REMARK INTRA:                  -0.120
REMARK UNBOUND:                -0.122
REMARK  Name = opt08.pdb
REMARK  4 active torsions:
REMARK  status: ('A' for Active; 'I' for Inactive)
REMARK    1  A    between atoms: C_2  and  C_4
REMARK    2  A    between atoms: C_5  and  C_6
REMARK    3  A    between atoms: C_9  and  O_11
REMARK    4  A    between atoms: C_12  and  O_13
REMARK                            x       y       z     vdW  Elec       q    Type
REMARK                         _______ _______ _______ _____ _____    ______ ____
ROOT
ATOM      1  C   UNL     1      12.272  13.460  43.914  0.00  0.00    +0.000 A 
ATOM      2  C   UNL     1      12.928  12.230  44.012  0.00  0.00    +0.000 A 
ATOM      3  C   UNL     1      12.931  14.628  44.304  0.00  0.00    +0.000 A 
ATOM      4  C   UNL     1      14.233  12.171  44.498  0.00  0.00    +0.000 A 
ATOM      5  C   UNL     1      14.239  14.571  44.782  0.00  0.00    +0.000 A 
ATOM      6  C   UNL     1      14.887  13.341  44.875  0.00  0.00    +0.000 A 
ENDROOT
BRANCH   1   8
ATOM      7  C   UNL     1       9.967  12.568  43.344  0.00  0.00    +0.000 C 
ATOM      8  C   UNL     1      10.895  13.536  43.382  0.00  0.00    +0.000 C 
BRANCH   7  10
ATOM      9  O   UNL     1       8.488  12.596  41.586  0.00  0.00    +0.000 OA
ATOM     10  C   UNL     1       8.600  12.673  42.793  0.00  0.00    +0.000 C 
ATOM     11  O   UNL     1       7.680  12.836  43.569  0.00  0.00    +0.000 OA
ENDBRANCH   7  10
ENDBRANCH   1   8
BRANCH   4  12
ATOM     12  O   UNL     1      14.887  10.975  44.611  0.00  0.00    +0.000 OA
ATOM     13  H   UNL     1      15.779  11.064  44.232  0.00  0.00    +0.000 HD
ENDBRANCH   4  12
BRANCH   6  14
ATOM     14  O   UNL     1      16.167  13.253  45.331  0.00  0.00    +0.000 OA
ATOM     15  H   UNL     1      16.482  14.180  45.373  0.00  0.00    +0.000 HD
ENDBRANCH   6  14
TORSDOF 4
ENDMDL
MODEL 12
REMARK VINA RESULT:    -4.745      1.925      6.186
REMARK INTER + INTRA:          -5.699
REMARK INTER:                  -5.560
REMARK INTRA:                  -0.139
REMARK UNBOUND:                -0.122
REMARK  Name = opt08.pdb
REMARK  4 active torsions:
REMARK  status: ('A' for Active; 'I' for Inactive)
REMARK    1  A    between atoms: C_2  and  C_4
REMARK    2  A    between atoms: C_5  and  C_6
REMARK    3  A    between atoms: C_9  and  O_11
REMARK    4  A    between atoms: C_12  and  O_13
REMARK                            x       y       z     vdW  Elec       q    Type
REMARK                         _______ _______ _______ _____ _____    ______ ____
ROOT
ATOM      1  C   UNL     1      12.868  13.384  44.272  0.00  0.00    +0.000 A 
ATOM      2  C   UNL     1      11.584  13.748  44.689  0.00  0.00    +0.000 A 
ATOM      3  C   UNL     1      13.027  12.608  43.122  0.00  0.00    +0.000 A 
ATOM      4  C   UNL     1      10.470  13.336  43.959  0.00  0.00    +0.000 A 
ATOM      5  C   UNL     1      11.914  12.203  42.388  0.00  0.00    +0.000 A 
ATOM      6  C   UNL     1      10.638  12.571  42.808  0.00  0.00    +0.000 A 
ENDROOT
BRANCH   1   8
ATOM      7  C   UNL     1      15.339  13.828  44.633  0.00  0.00    +0.000 C 
ATOM      8  C   UNL     1      14.057  13.831  45.028  0.00  0.00    +0.000 C 
BRANCH   7  10
ATOM      9  O   UNL     1      17.192  15.153  44.934  0.00  0.00    +0.000 OA
ATOM     10  C   UNL     1      16.509  14.272  45.418  0.00  0.00    +0.000 C 
ATOM     11  O   UNL     1      16.723  13.732  46.484  0.00  0.00    +0.000 OA
ENDBRANCH   7  10
ENDBRANCH   1   8
BRANCH   4  12
ATOM     12  O   UNL     1       9.206  13.674  44.358  0.00  0.00    +0.000 OA
ATOM     13  H   UNL     1       8.581  13.004  44.031  0.00  0.00    +0.000 HD
ENDBRANCH   4  12
BRANCH   6  14
ATOM     14  O   UNL     1       9.531  12.198  42.108  0.00  0.00    +0.000 OA
ATOM     15  H   UNL     1       9.440  11.237  42.279  0.00  0.00    +0.000 HD
ENDBRANCH   6  14
TORSDOF 4
ENDMDL
MODEL 13
REMARK VINA RESULT:    -4.687      2.712      6.672
REMARK INTER + INTRA:          -5.631
REMARK INTER:                  -5.512
REMARK INTRA:                  -0.119
REMARK UNBOUND:                -0.122
REMARK  Name = opt08.pdb
REMARK  4 active torsions:
REMARK  status: ('A' for Active; 'I' for Inactive)
REMARK    1  A    between atoms: C_2  and  C_4
REMARK    2  A    between atoms: C_5  and  C_6
REMARK    3  A    between atoms: C_9  and  O_11
REMARK    4  A    between atoms: C_12  and  O_13
REMARK                            x       y       z     vdW  Elec       q    Type
REMARK                         _______ _______ _______ _____ _____    ______ ____
ROOT
ATOM      1  C   UNL     1      15.019  13.740  44.296  0.00  0.00    +0.000 A 
ATOM      2  C   UNL     1      14.886  12.377  44.571  0.00  0.00    +0.000 A 
ATOM      3  C   UNL     1      13.965  14.430  43.693  0.00  0.00    +0.000 A 
ATOM      4  C   UNL     1      13.706  11.710  44.245  0.00  0.00    +0.000 A 
ATOM      5  C   UNL     1      12.782  13.767  43.373  0.00  0.00    +0.000 A 
ATOM      6  C   UNL     1      12.656  12.407  43.652  0.00  0.00    +0.000 A 
ENDROOT
BRANCH   1   8
ATOM      7  C   UNL     1      17.508  14.223  44.231  0.00  0.00    +0.000 C 
ATOM      8  C   UNL     1      16.258  14.461  44.656  0.00  0.00    +0.000 C 
BRANCH   7  10
ATOM      9  O   UNL     1      19.736  14.295  44.787  0.00  0.00    +0.000 OA
ATOM     10  C   UNL     1      18.731  14.957  44.620  0.00  0.00    +0.000 C 
ATOM     11  O   UNL     1      18.658  16.161  44.758  0.00  0.00    +0.000 OA
ENDBRANCH   7  10
ENDBRANCH   1   8
BRANCH   4  12
ATOM     12  O   UNL     1      13.561  10.374  44.497  0.00  0.00    +0.000 OA
ATOM     13  H   UNL     1      12.829  10.248  45.127  0.00  0.00    +0.000 HD
ENDBRANCH   4  12
BRANCH   6  14
ATOM     14  O   UNL     1      11.510  11.733  43.360  0.00  0.00    +0.000 OA
ATOM     15  H   UNL     1      11.339  11.929  42.415  0.00  0.00    +0.000 HD
ENDBRANCH   6  14
TORSDOF 4
ENDMDL
MODEL 14
REMARK VINA RESULT:    -4.608      2.199      3.148
REMARK INTER + INTRA:          -5.538
REMARK INTER:                  -5.399
REMARK INTRA:                  -0.140
REMARK UNBOUND:                -0.122
REMARK  Name = opt08.pdb
REMARK  4 active torsions:
REMARK  status: ('A' for Active; 'I' for Inactive)
REMARK    1  A    between atoms: C_2  and  C_4
REMARK    2  A    between atoms: C_5  and  C_6
REMARK    3  A    between atoms: C_9  and  O_11
REMARK    4  A    between atoms: C_12  and  O_13
REMARK                            x       y       z     vdW  Elec       q    Type
REMARK                         _______ _______ _______ _____ _____    ______ ____
ROOT
ATOM      1  C   UNL     1      12.227  14.111  44.103  0.00  0.00    +0.000 A 
ATOM      2  C   UNL     1      13.444  14.259  44.774  0.00  0.00    +0.000 A 
ATOM      3  C   UNL     1      11.904  12.886  43.517  0.00  0.00    +0.000 A 
ATOM      4  C   UNL     1      14.331  13.186  44.856  0.00  0.00    +0.000 A 
ATOM      5  C   UNL     1      12.786  11.810  43.605  0.00  0.00    +0.000 A 
ATOM      6  C   UNL     1      13.997  11.963  44.277  0.00  0.00    +0.000 A 
ENDROOT
BRANCH   1   8
ATOM      7  C   UNL     1       9.942  15.184  43.854  0.00  0.00    +0.000 C 
ATOM      8  C   UNL     1      11.272  15.236  44.028  0.00  0.00    +0.000 C 
BRANCH   7  10
ATOM      9  O   UNL     1       9.456  17.362  43.305  0.00  0.00    +0.000 OA
ATOM     10  C   UNL     1       9.014  16.331  43.771  0.00  0.00    +0.000 C 
ATOM     11  O   UNL     1       7.879  16.181  44.177  0.00  0.00    +0.000 OA
ENDBRANCH   7  10
ENDBRANCH   1   8
BRANCH   4  12
ATOM     12  O   UNL     1      15.531  13.314  45.499  0.00  0.00    +0.000 OA
ATOM     13  H   UNL     1      15.536  14.150  45.996  0.00  0.00    +0.000 HD
ENDBRANCH   4  12
BRANCH   6  14
ATOM     14  O   UNL     1      14.877  10.930  44.387  0.00  0.00    +0.000 OA
ATOM     15  H   UNL     1      14.324  10.124  44.322  0.00  0.00    +0.000 HD
ENDBRANCH   6  14
TORSDOF 4
ENDMDL
MODEL 15
REMARK VINA RESULT:    -4.413      2.480      3.571
REMARK INTER + INTRA:          -5.309
REMARK INTER:                  -5.187
REMARK INTRA:                  -0.121
REMARK UNBOUND:                -0.122
REMARK  Name = opt08.pdb
REMARK  4 active torsions:
REMARK  status: ('A' for Active; 'I' for Inactive)
REMARK    1  A    between atoms: C_2  and  C_4
REMARK    2  A    between atoms: C_5  and  C_6
REMARK    3  A    between atoms: C_9  and  O_11
REMARK    4  A    between atoms: C_12  and  O_13
REMARK                            x       y       z     vdW  Elec       q    Type
REMARK                         _______ _______ _______ _____ _____    ______ ____
ROOT
ATOM      1  C   UNL     1      13.871  13.549  44.062  0.00  0.00    +0.000 A 
ATOM      2  C   UNL     1      13.815  14.944  44.110  0.00  0.00    +0.000 A 
ATOM      3  C   UNL     1      14.996  12.885  44.555  0.00  0.00    +0.000 A 
ATOM      4  C   UNL     1      14.879  15.668  44.648  0.00  0.00    +0.000 A 
ATOM      5  C   UNL     1      16.056  13.606  45.100  0.00  0.00    +0.000 A 
ATOM      6  C   UNL     1      15.993  14.998  45.147  0.00  0.00    +0.000 A 
ENDROOT
BRANCH   1   8
ATOM      7  C   UNL     1      12.412  12.584  42.225  0.00  0.00    +0.000 C 
ATOM      8  C   UNL     1      12.741  12.771  43.512  0.00  0.00    +0.000 C 
BRANCH   7  10
ATOM      9  O   UNL     1      11.327  11.447  40.549  0.00  0.00    +0.000 OA
ATOM     10  C   UNL     1      11.265  11.808  41.707  0.00  0.00    +0.000 C 
ATOM     11  O   UNL     1      10.336  11.588  42.457  0.00  0.00    +0.000 OA
ENDBRANCH   7  10
ENDBRANCH   1   8
BRANCH   4  12
ATOM     12  O   UNL     1      14.846  17.034  44.694  0.00  0.00    +0.000 OA
ATOM     13  H   UNL     1      15.648  17.385  44.269  0.00  0.00    +0.000 HD
ENDBRANCH   4  12
BRANCH   6  14
ATOM     14  O   UNL     1      17.008  15.731  45.679  0.00  0.00    +0.000 OA
ATOM     15  H   UNL     1      17.426  16.175  44.912  0.00  0.00    +0.000 HD
ENDBRANCH   6  14
TORSDOF 4
ENDMDL
MODEL 16
REMARK VINA RESULT:    -4.351      3.218      7.140
REMARK INTER + INTRA:          -5.236
REMARK INTER:                  -5.106
REMARK INTRA:                  -0.130
REMARK UNBOUND:                -0.122
REMARK  Name = opt08.pdb
REMARK  4 active torsions:
REMARK  status: ('A' for Active; 'I' for Inactive)
REMARK    1  A    between atoms: C_2  and  C_4
REMARK    2  A    between atoms: C_5  and  C_6
REMARK    3  A    between atoms: C_9  and  O_11
REMARK    4  A    between atoms: C_12  and  O_13
REMARK                            x       y       z     vdW  Elec       q    Type
REMARK                         _______ _______ _______ _____ _____    ______ ____
ROOT
ATOM      1  C   UNL     1      15.239  14.151  44.751  0.00  0.00    +0.000 A 
ATOM      2  C   UNL     1      14.337  15.217  44.722  0.00  0.00    +0.000 A 
ATOM      3  C   UNL     1      14.761  12.839  44.715  0.00  0.00    +0.000 A 
ATOM      4  C   UNL     1      12.966  14.971  44.657  0.00  0.00    +0.000 A 
ATOM      5  C   UNL     1      13.391  12.592  44.643  0.00  0.00    +0.000 A 
ATOM      6  C   UNL     1      12.497  13.660  44.612  0.00  0.00    +0.000 A 
ENDROOT
BRANCH   1   8
ATOM      7  C   UNL     1      17.582  14.328  43.796  0.00  0.00    +0.000 C 
ATOM      8  C   UNL     1      16.695  14.401  44.800  0.00  0.00    +0.000 C 
BRANCH   7  10
ATOM      9  O   UNL     1      19.524  14.603  44.992  0.00  0.00    +0.000 OA
ATOM     10  C   UNL     1      19.037  14.574  43.880  0.00  0.00    +0.000 C 
ATOM     11  O   UNL     1      19.651  14.739  42.845  0.00  0.00    +0.000 OA
ENDBRANCH   7  10
ENDBRANCH   1   8
BRANCH   4  12
ATOM     12  O   UNL     1      12.067  16.002  44.638  0.00  0.00    +0.000 OA
ATOM     13  H   UNL     1      11.179  15.652  44.827  0.00  0.00    +0.000 HD
ENDBRANCH   4  12
BRANCH   6  14
ATOM     14  O   UNL     1      11.154  13.452  44.533  0.00  0.00    +0.000 OA
ATOM     15  H   UNL     1      10.854  13.404  45.465  0.00  0.00    +0.000 HD
ENDBRANCH   6  14
TORSDOF 4
ENDMDL
MODEL 17
REMARK VINA RESULT:    -4.300      2.650      5.964
REMARK INTER + INTRA:          -5.177
REMARK INTER:                  -5.047
REMARK INTRA:                  -0.130
REMARK UNBOUND:                -0.122
REMARK  Name = opt08.pdb
REMARK  4 active torsions:
REMARK  status: ('A' for Active; 'I' for Inactive)
REMARK    1  A    between atoms: C_2  and  C_4
REMARK    2  A    between atoms: C_5  and  C_6
REMARK    3  A    between atoms: C_9  and  O_11
REMARK    4  A    between atoms: C_12  and  O_13
REMARK                            x       y       z     vdW  Elec       q    Type
REMARK                         _______ _______ _______ _____ _____    ______ ____
ROOT
ATOM      1  C   UNL     1      13.662  13.182  43.201  0.00  0.00    +0.000 A 
ATOM      2  C   UNL     1      12.729  12.278  42.687  0.00  0.00    +0.000 A 
ATOM      3  C   UNL     1      13.265  14.111  44.165  0.00  0.00    +0.000 A 
ATOM      4  C   UNL     1      11.409  12.305  43.135  0.00  0.00    +0.000 A 
ATOM      5  C   UNL     1      11.948  14.135  44.619  0.00  0.00    +0.000 A 
ATOM      6  C   UNL     1      11.024  13.228  44.103  0.00  0.00    +0.000 A 
ENDROOT
BRANCH   1   8
ATOM      7  C   UNL     1      15.875  14.185  42.473  0.00  0.00    +0.000 C 
ATOM      8  C   UNL     1      15.068  13.149  42.747  0.00  0.00    +0.000 C 
BRANCH   7  10
ATOM      9  O   UNL     1      17.455  13.809  40.848  0.00  0.00    +0.000 OA
ATOM     10  C   UNL     1      17.277  14.118  42.009  0.00  0.00    +0.000 C 
ATOM     11  O   UNL     1      18.158  14.363  42.808  0.00  0.00    +0.000 OA
ENDBRANCH   7  10
ENDBRANCH   1   8
BRANCH   4  12
ATOM     12  O   UNL     1      10.480  11.435  42.636  0.00  0.00    +0.000 OA
ATOM     13  H   UNL     1      10.916  10.830  42.010  0.00  0.00    +0.000 HD
ENDBRANCH   4  12
BRANCH   6  14
ATOM     14  O   UNL     1       9.732  13.220  44.532  0.00  0.00    +0.000 OA
ATOM     15  H   UNL     1       9.199  13.107  43.717  0.00  0.00    +0.000 HD
ENDBRANCH   6  14
TORSDOF 4
ENDMDL
MODEL 18
REMARK VINA RESULT:    -4.209      3.694      6.633
REMARK INTER + INTRA:          -5.069
REMARK INTER:                  -4.941
REMARK INTRA:                  -0.127
REMARK UNBOUND:                -0.122
REMARK  Name = opt08.pdb
REMARK  4 active torsions:
REMARK  status: ('A' for Active; 'I' for Inactive)
REMARK    1  A    between atoms: C_2  and  C_4
REMARK    2  A    between atoms: C_5  and  C_6
REMARK    3  A    between atoms: C_9  and  O_11
REMARK    4  A    between atoms: C_12  and  O_13
REMARK                            x       y       z     vdW  Elec       q    Type
REMARK                         _______ _______ _______ _____ _____    ______ ____
ROOT
ATOM      1  C   UNL     1      14.695  15.381  44.649  0.00  0.00    +0.000 A 
ATOM      2  C   UNL     1      13.372  14.952  44.517  0.00  0.00    +0.000 A 
ATOM      3  C   UNL     1      15.710  14.441  44.842  0.00  0.00    +0.000 A 
ATOM      4  C   UNL     1      13.068  13.593  44.578  0.00  0.00    +0.000 A 
ATOM      5  C   UNL     1      15.409  13.081  44.895  0.00  0.00    +0.000 A 
ATOM      6  C   UNL     1      14.087  12.661  44.761  0.00  0.00    +0.000 A 
ENDROOT
BRANCH   1   8
ATOM      7  C   UNL     1      15.729  17.558  45.441  0.00  0.00    +0.000 C 
ATOM      8  C   UNL     1      15.031  16.818  44.566  0.00  0.00    +0.000 C 
BRANCH   7  10
ATOM      9  O   UNL     1      15.092  19.757  45.256  0.00  0.00    +0.000 OA
ATOM     10  C   UNL     1      16.038  18.999  45.334  0.00  0.00    +0.000 C 
ATOM     11  O   UNL     1      17.204  19.336  45.321  0.00  0.00    +0.000 OA
ENDBRANCH   7  10
ENDBRANCH   1   8
BRANCH   4  12
ATOM     12  O   UNL     1      11.777  13.156  44.461  0.00  0.00    +0.000 OA
ATOM     13  H   UNL     1      11.773  12.183  44.434  0.00  0.00    +0.000 HD
ENDBRANCH   4  12
BRANCH   6  14
ATOM     14  O   UNL     1      13.760  11.340  44.801  0.00  0.00    +0.000 OA
ATOM     15  H   UNL     1      13.967  11.060  45.717  0.00  0.00    +0.000 HD
ENDBRANCH   6  14
TORSDOF 4
ENDMDL
MODEL 19
REMARK VINA RESULT:    -4.085      1.454      2.023
REMARK INTER + INTRA:          -4.924
REMARK INTER:                  -4.793
REMARK INTRA:                  -0.131
REMARK UNBOUND:                -0.122
REMARK  Name = opt08.pdb
REMARK  4 active torsions:
REMARK  status: ('A' for Active; 'I' for Inactive)
REMARK    1  A    between atoms: C_2  and  C_4
REMARK    2  A    between atoms: C_5  and  C_6
REMARK    3  A    between atoms: C_9  and  O_11
REMARK    4  A    between atoms: C_12  and  O_13
REMARK                            x       y       z     vdW  Elec       q    Type
REMARK                         _______ _______ _______ _____ _____    ______ ____
ROOT
ATOM      1  C   UNL     1      11.398  13.276  43.511  0.00  0.00    +0.000 A 
ATOM      2  C   UNL     1      12.257  13.490  44.592  0.00  0.00    +0.000 A 
ATOM      3  C   UNL     1      11.919  12.855  42.286  0.00  0.00    +0.000 A 
ATOM      4  C   UNL     1      13.629  13.285  44.445  0.00  0.00    +0.000 A 
ATOM      5  C   UNL     1      13.289  12.641  42.140  0.00  0.00    +0.000 A 
ATOM      6  C   UNL     1      14.140  12.855  43.223  0.00  0.00    +0.000 A 
ENDROOT
BRANCH   1   8
ATOM      7  C   UNL     1       8.965  12.560  43.535  0.00  0.00    +0.000 C 
ATOM      8  C   UNL     1       9.941  13.471  43.661  0.00  0.00    +0.000 C 
BRANCH   7  10
ATOM      9  O   UNL     1       7.174  13.805  44.255  0.00  0.00    +0.000 OA
ATOM     10  C   UNL     1       7.512  12.790  43.680  0.00  0.00    +0.000 C 
ATOM     11  O   UNL     1       6.752  11.957  43.230  0.00  0.00    +0.000 OA
ENDBRANCH   7  10
ENDBRANCH   1   8
BRANCH   4  12
ATOM     12  O   UNL     1      14.486  13.499  45.489  0.00  0.00    +0.000 OA
ATOM     13  H   UNL     1      14.357  12.801  46.154  0.00  0.00    +0.000 HD
ENDBRANCH   4  12
BRANCH   6  14
ATOM     14  O   UNL     1      15.481  12.648  43.116  0.00  0.00    +0.000 OA
ATOM     15  H   UNL     1      15.837  12.854  44.005  0.00  0.00    +0.000 HD
ENDBRANCH   6  14
TORSDOF 4
ENDMDL
