MODEL 1
REMARK VINA RESULT:    -4.703      0.000      0.000
REMARK INTER + INTRA:          -5.525
REMARK INTER:                  -5.390
REMARK INTRA:                  -0.135
REMARK UNBOUND:                -0.135
REMARK  Name = opt82.pdb
REMARK  3 active torsions:
REMARK  status: ('A' for Active; 'I' for Inactive)
REMARK    1  A    between atoms: C_2  and  C_4
REMARK    2  A    between atoms: C_5  and  C_6
REMARK    3  A    between atoms: C_11  and  O_12
REMARK                            x       y       z     vdW  Elec       q    Type
REMARK                         _______ _______ _______ _____ _____    ______ ____
ROOT
ATOM      1  C   UNL     1      14.595  12.969  42.997  0.00  0.00    +0.000 A 
ATOM      2  C   UNL     1      15.714  13.559  42.403  0.00  0.00    +0.000 A 
ATOM      3  C   UNL     1      14.526  12.873  44.387  0.00  0.00    +0.000 A 
ATOM      4  C   UNL     1      16.754  14.045  43.194  0.00  0.00    +0.000 A 
ATOM      5  C   UNL     1      15.562  13.364  45.179  0.00  0.00    +0.000 A 
ATOM      6  C   UNL     1      16.678  13.949  44.583  0.00  0.00    +0.000 A 
ENDROOT
BRANCH   1   8
ATOM      7  C   UNL     1      12.164  12.578  42.388  0.00  0.00    +0.000 C 
ATOM      8  C   UNL     1      13.484  12.464  42.165  0.00  0.00    +0.000 C 
BRANCH   7  10
ATOM      9  O   UNL     1      11.391  11.436  40.550  0.00  0.00    +0.000 OA
ATOM     10  C   UNL     1      11.070  12.055  41.544  0.00  0.00    +0.000 C 
ATOM     11  O   UNL     1       9.925  12.277  41.886  0.00  0.00    +0.000 OA
ENDBRANCH   7  10
ENDBRANCH   1   8
BRANCH   6  12
ATOM     12  O   UNL     1      17.691  14.430  45.359  0.00  0.00    +0.000 OA
ATOM     13  H   UNL     1      18.422  13.787  45.373  0.00  0.00    +0.000 HD
ENDBRANCH   6  12
TORSDOF 3
ENDMDL
MODEL 2
REMARK VINA RESULT:    -4.701      0.097      1.396
REMARK INTER + INTRA:          -5.523
REMARK INTER:                  -5.389
REMARK INTRA:                  -0.134
REMARK UNBOUND:                -0.135
REMARK  Name = opt82.pdb
REMARK  3 active torsions:
REMARK  status: ('A' for Active; 'I' for Inactive)
REMARK    1  A    between atoms: C_2  and  C_4
REMARK    2  A    between atoms: C_5  and  C_6
REMARK    3  A    between atoms: C_11  and  O_12
REMARK                            x       y       z     vdW  Elec       q    Type
REMARK                         _______ _______ _______ _____ _____    ______ ____
ROOT
ATOM      1  C   UNL     1      14.540  12.968  43.059  0.00  0.00    +0.000 A 
ATOM      2  C   UNL     1      14.469  12.869  44.450  0.00  0.00    +0.000 A 
ATOM      3  C   UNL     1      15.674  13.528  42.467  0.00  0.00    +0.000 A 
ATOM      4  C   UNL     1      15.520  13.329  45.242  0.00  0.00    +0.000 A 
ATOM      5  C   UNL     1      16.727  13.983  43.258  0.00  0.00    +0.000 A 
ATOM      6  C   UNL     1      16.651  13.885  44.646  0.00  0.00    +0.000 A 
ENDROOT
BRANCH   1   8
ATOM      7  C   UNL     1      12.116  12.548  42.446  0.00  0.00    +0.000 C 
ATOM      8  C   UNL     1      13.436  12.470  42.214  0.00  0.00    +0.000 C 
BRANCH   7  10
ATOM      9  O   UNL     1      11.355  11.529  40.531  0.00  0.00    +0.000 OA
ATOM     10  C   UNL     1      11.029  12.031  41.587  0.00  0.00    +0.000 C 
ATOM     11  O   UNL     1       9.884  12.145  41.980  0.00  0.00    +0.000 OA
ENDBRANCH   7  10
ENDBRANCH   1   8
BRANCH   6  12
ATOM     12  O   UNL     1      17.684  14.330  45.418  0.00  0.00    +0.000 OA
ATOM     13  H   UNL     1      17.945  15.221  45.127  0.00  0.00    +0.000 HD
ENDBRANCH   6  12
TORSDOF 3
ENDMDL
MODEL 3
REMARK VINA RESULT:    -4.629      1.356      5.926
REMARK INTER + INTRA:          -5.440
REMARK INTER:                  -5.305
REMARK INTRA:                  -0.135
REMARK UNBOUND:                -0.135
REMARK  Name = opt82.pdb
REMARK  3 active torsions:
REMARK  status: ('A' for Active; 'I' for Inactive)
REMARK    1  A    between atoms: C_2  and  C_4
REMARK    2  A    between atoms: C_5  and  C_6
REMARK    3  A    between atoms: C_11  and  O_12
REMARK                            x       y       z     vdW  Elec       q    Type
REMARK                         _______ _______ _______ _____ _____    ______ ____
ROOT
ATOM      1  C   UNL     1      13.067  13.176  44.236  0.00  0.00    +0.000 A 
ATOM      2  C   UNL     1      11.833  13.710  44.614  0.00  0.00    +0.000 A 
ATOM      3  C   UNL     1      13.138  12.324  43.133  0.00  0.00    +0.000 A 
ATOM      4  C   UNL     1      10.681  13.392  43.898  0.00  0.00    +0.000 A 
ATOM      5  C   UNL     1      11.987  12.009  42.413  0.00  0.00    +0.000 A 
ATOM      6  C   UNL     1      10.757  12.542  42.795  0.00  0.00    +0.000 A 
ENDROOT
BRANCH   1   8
ATOM      7  C   UNL     1      15.536  13.692  44.501  0.00  0.00    +0.000 C 
ATOM      8  C   UNL     1      14.295  13.520  44.983  0.00  0.00    +0.000 C 
BRANCH   7  10
ATOM      9  O   UNL     1      17.643  14.594  44.675  0.00  0.00    +0.000 OA
ATOM     10  C   UNL     1      16.752  14.027  45.273  0.00  0.00    +0.000 C 
ATOM     11  O   UNL     1      16.790  13.713  46.447  0.00  0.00    +0.000 OA
ENDBRANCH   7  10
ENDBRANCH   1   8
BRANCH   6  12
ATOM     12  O   UNL     1       9.632  12.235  42.088  0.00  0.00    +0.000 OA
ATOM     13  H   UNL     1       9.883  11.921  41.201  0.00  0.00    +0.000 HD
ENDBRANCH   6  12
TORSDOF 3
ENDMDL
MODEL 4
REMARK VINA RESULT:    -4.575      3.988      4.801
REMARK INTER + INTRA:          -5.379
REMARK INTER:                  -5.242
REMARK INTRA:                  -0.137
REMARK UNBOUND:                -0.135
REMARK  Name = opt82.pdb
REMARK  3 active torsions:
REMARK  status: ('A' for Active; 'I' for Inactive)
REMARK    1  A    between atoms: C_2  and  C_4
REMARK    2  A    between atoms: C_5  and  C_6
REMARK    3  A    between atoms: C_11  and  O_12
REMARK                            x       y       z     vdW  Elec       q    Type
REMARK                         _______ _______ _______ _____ _____    ______ ____
ROOT
ATOM      1  C   UNL     1      14.022  14.756  44.573  0.00  0.00    +0.000 A 
ATOM      2  C   UNL     1      15.353  14.332  44.557  0.00  0.00    +0.000 A 
ATOM      3  C   UNL     1      12.999  13.808  44.523  0.00  0.00    +0.000 A 
ATOM      4  C   UNL     1      15.657  12.974  44.487  0.00  0.00    +0.000 A 
ATOM      5  C   UNL     1      13.301  12.450  44.459  0.00  0.00    +0.000 A 
ATOM      6  C   UNL     1      14.631  12.031  44.440  0.00  0.00    +0.000 A 
ENDROOT
BRANCH   1   8
ATOM      7  C   UNL     1      12.482  16.770  44.610  0.00  0.00    +0.000 C 
ATOM      8  C   UNL     1      13.693  16.194  44.661  0.00  0.00    +0.000 C 
BRANCH   7  10
ATOM      9  O   UNL     1      12.717  18.840  45.581  0.00  0.00    +0.000 OA
ATOM     10  C   UNL     1      12.180  18.216  44.690  0.00  0.00    +0.000 C 
ATOM     11  O   UNL     1      11.414  18.687  43.873  0.00  0.00    +0.000 OA
ENDBRANCH   7  10
ENDBRANCH   1   8
BRANCH   6  12
ATOM     12  O   UNL     1      14.925  10.700  44.378  0.00  0.00    +0.000 OA
ATOM     13  H   UNL     1      15.249  10.400  45.246  0.00  0.00    +0.000 HD
ENDBRANCH   6  12
TORSDOF 3
ENDMDL
MODEL 5
REMARK VINA RESULT:    -4.521      1.380      5.876
REMARK INTER + INTRA:          -5.317
REMARK INTER:                  -5.185
REMARK INTRA:                  -0.132
REMARK UNBOUND:                -0.135
REMARK  Name = opt82.pdb
REMARK  3 active torsions:
REMARK  status: ('A' for Active; 'I' for Inactive)
REMARK    1  A    between atoms: C_2  and  C_4
REMARK    2  A    between atoms: C_5  and  C_6
REMARK    3  A    between atoms: C_11  and  O_12
REMARK                            x       y       z     vdW  Elec       q    Type
REMARK                         _______ _______ _______ _____ _____    ______ ____
ROOT
ATOM      1  C   UNL     1      13.008  13.196  44.204  0.00  0.00    +0.000 A 
ATOM      2  C   UNL     1      13.090  12.404  43.056  0.00  0.00    +0.000 A 
ATOM      3  C   UNL     1      11.768  13.694  44.607  0.00  0.00    +0.000 A 
ATOM      4  C   UNL     1      11.944  12.116  42.318  0.00  0.00    +0.000 A 
ATOM      5  C   UNL     1      10.620  13.402  43.872  0.00  0.00    +0.000 A 
ATOM      6  C   UNL     1      10.707  12.614  42.726  0.00  0.00    +0.000 A 
ENDROOT
BRANCH   1   8
ATOM      7  C   UNL     1      15.414  13.914  44.558  0.00  0.00    +0.000 C 
ATOM      8  C   UNL     1      14.217  13.494  44.998  0.00  0.00    +0.000 C 
BRANCH   7  10
ATOM      9  O   UNL     1      16.700  13.621  46.440  0.00  0.00    +0.000 OA
ATOM     10  C   UNL     1      16.614  14.197  45.375  0.00  0.00    +0.000 C 
ATOM     11  O   UNL     1      17.431  14.984  44.940  0.00  0.00    +0.000 OA
ENDBRANCH   7  10
ENDBRANCH   1   8
BRANCH   6  12
ATOM     12  O   UNL     1       9.582  12.327  42.009  0.00  0.00    +0.000 OA
ATOM     13  H   UNL     1       9.822  11.792  41.232  0.00  0.00    +0.000 HD
ENDBRANCH   6  12
TORSDOF 3
ENDMDL
MODEL 6
REMARK VINA RESULT:    -4.484      3.598      4.342
REMARK INTER + INTRA:          -5.274
REMARK INTER:                  -5.140
REMARK INTRA:                  -0.134
REMARK UNBOUND:                -0.135
REMARK  Name = opt82.pdb
REMARK  3 active torsions:
REMARK  status: ('A' for Active; 'I' for Inactive)
REMARK    1  A    between atoms: C_2  and  C_4
REMARK    2  A    between atoms: C_5  and  C_6
REMARK    3  A    between atoms: C_11  and  O_12
REMARK                            x       y       z     vdW  Elec       q    Type
REMARK                         _______ _______ _______ _____ _____    ______ ____
ROOT
ATOM      1  C   UNL     1      12.548  13.786  43.750  0.00  0.00    +0.000 A 
ATOM      2  C   UNL     1      13.738  13.904  44.473  0.00  0.00    +0.000 A 
ATOM      3  C   UNL     1      12.130  12.527  43.317  0.00  0.00    +0.000 A 
ATOM      4  C   UNL     1      14.503  12.774  44.756  0.00  0.00    +0.000 A 
ATOM      5  C   UNL     1      12.892  11.396  43.604  0.00  0.00    +0.000 A 
ATOM      6  C   UNL     1      14.080  11.518  44.323  0.00  0.00    +0.000 A 
ENDROOT
BRANCH   1   8
ATOM      7  C   UNL     1      11.623  16.108  44.177  0.00  0.00    +0.000 C 
ATOM      8  C   UNL     1      11.725  14.978  43.459  0.00  0.00    +0.000 C 
BRANCH   7  10
ATOM      9  O   UNL     1      11.348  18.357  43.789  0.00  0.00    +0.000 OA
ATOM     10  C   UNL     1      10.783  17.285  43.868  0.00  0.00    +0.000 C 
ATOM     11  O   UNL     1       9.589  17.114  43.720  0.00  0.00    +0.000 OA
ENDBRANCH   7  10
ENDBRANCH   1   8
BRANCH   6  12
ATOM     12  O   UNL     1      14.823  10.409  44.604  0.00  0.00    +0.000 OA
ATOM     13  H   UNL     1      15.352  10.570  45.405  0.00  0.00    +0.000 HD
ENDBRANCH   6  12
TORSDOF 3
ENDMDL
MODEL 7
REMARK VINA RESULT:    -4.423      1.265      1.627
REMARK INTER + INTRA:          -5.205
REMARK INTER:                  -5.075
REMARK INTRA:                  -0.129
REMARK UNBOUND:                -0.135
REMARK  Name = opt82.pdb
REMARK  3 active torsions:
REMARK  status: ('A' for Active; 'I' for Inactive)
REMARK    1  A    between atoms: C_2  and  C_4
REMARK    2  A    between atoms: C_5  and  C_6
REMARK    3  A    between atoms: C_11  and  O_12
REMARK                            x       y       z     vdW  Elec       q    Type
REMARK                         _______ _______ _______ _____ _____    ______ ____
ROOT
ATOM      1  C   UNL     1      13.874  13.579  44.147  0.00  0.00    +0.000 A 
ATOM      2  C   UNL     1      14.964  12.873  44.662  0.00  0.00    +0.000 A 
ATOM      3  C   UNL     1      13.905  14.975  44.132  0.00  0.00    +0.000 A 
ATOM      4  C   UNL     1      16.072  13.556  45.159  0.00  0.00    +0.000 A 
ATOM      5  C   UNL     1      15.015  15.658  44.623  0.00  0.00    +0.000 A 
ATOM      6  C   UNL     1      16.100  14.950  45.139  0.00  0.00    +0.000 A 
ENDROOT
BRANCH   1   8
ATOM      7  C   UNL     1      12.500  12.434  42.349  0.00  0.00    +0.000 C 
ATOM      8  C   UNL     1      12.702  12.861  43.606  0.00  0.00    +0.000 C 
BRANCH   7  10
ATOM      9  O   UNL     1      11.299  11.471  40.643  0.00  0.00    +0.000 OA
ATOM     10  C   UNL     1      11.312  11.724  41.830  0.00  0.00    +0.000 C 
ATOM     11  O   UNL     1      10.424  11.445  42.611  0.00  0.00    +0.000 OA
ENDBRANCH   7  10
ENDBRANCH   1   8
BRANCH   6  12
ATOM     12  O   UNL     1      17.186  15.621  45.619  0.00  0.00    +0.000 OA
ATOM     13  H   UNL     1      17.206  16.518  45.240  0.00  0.00    +0.000 HD
ENDBRANCH   6  12
TORSDOF 3
ENDMDL
MODEL 8
REMARK VINA RESULT:    -4.408      4.015      4.961
REMARK INTER + INTRA:          -5.187
REMARK INTER:                  -5.053
REMARK INTRA:                  -0.135
REMARK UNBOUND:                -0.135
REMARK  Name = opt82.pdb
REMARK  3 active torsions:
REMARK  status: ('A' for Active; 'I' for Inactive)
REMARK    1  A    between atoms: C_2  and  C_4
REMARK    2  A    between atoms: C_5  and  C_6
REMARK    3  A    between atoms: C_11  and  O_12
REMARK                            x       y       z     vdW  Elec       q    Type
REMARK                         _______ _______ _______ _____ _____    ______ ____
ROOT
ATOM      1  C   UNL     1      14.111  14.735  44.503  0.00  0.00    +0.000 A 
ATOM      2  C   UNL     1      13.064  13.813  44.575  0.00  0.00    +0.000 A 
ATOM      3  C   UNL     1      15.423  14.276  44.377  0.00  0.00    +0.000 A 
ATOM      4  C   UNL     1      13.328  12.446  44.525  0.00  0.00    +0.000 A 
ATOM      5  C   UNL     1      15.687  12.909  44.322  0.00  0.00    +0.000 A 
ATOM      6  C   UNL     1      14.641  11.992  44.397  0.00  0.00    +0.000 A 
ENDROOT
BRANCH   1   8
ATOM      7  C   UNL     1      12.681  16.803  44.838  0.00  0.00    +0.000 C 
ATOM      8  C   UNL     1      13.836  16.186  44.541  0.00  0.00    +0.000 C 
BRANCH   7  10
ATOM      9  O   UNL     1      11.963  18.751  43.853  0.00  0.00    +0.000 OA
ATOM     10  C   UNL     1      12.429  18.259  44.860  0.00  0.00    +0.000 C 
ATOM     11  O   UNL     1      12.707  18.874  45.870  0.00  0.00    +0.000 OA
ENDBRANCH   7  10
ENDBRANCH   1   8
BRANCH   6  12
ATOM     12  O   UNL     1      14.901  10.654  44.341  0.00  0.00    +0.000 OA
ATOM     13  H   UNL     1      15.452  10.464  43.561  0.00  0.00    +0.000 HD
ENDBRANCH   6  12
TORSDOF 3
ENDMDL
MODEL 9
REMARK VINA RESULT:    -4.378      2.426      5.978
REMARK INTER + INTRA:          -5.153
REMARK INTER:                  -5.023
REMARK INTRA:                  -0.130
REMARK UNBOUND:                -0.135
REMARK  Name = opt82.pdb
REMARK  3 active torsions:
REMARK  status: ('A' for Active; 'I' for Inactive)
REMARK    1  A    between atoms: C_2  and  C_4
REMARK    2  A    between atoms: C_5  and  C_6
REMARK    3  A    between atoms: C_11  and  O_12
REMARK                            x       y       z     vdW  Elec       q    Type
REMARK                         _______ _______ _______ _____ _____    ______ ____
ROOT
ATOM      1  C   UNL     1      15.290  14.115  44.730  0.00  0.00    +0.000 A 
ATOM      2  C   UNL     1      14.400  15.190  44.670  0.00  0.00    +0.000 A 
ATOM      3  C   UNL     1      14.794  12.811  44.711  0.00  0.00    +0.000 A 
ATOM      4  C   UNL     1      13.028  14.962  44.595  0.00  0.00    +0.000 A 
ATOM      5  C   UNL     1      13.422  12.582  44.630  0.00  0.00    +0.000 A 
ATOM      6  C   UNL     1      12.537  13.657  44.574  0.00  0.00    +0.000 A 
ENDROOT
BRANCH   1   8
ATOM      7  C   UNL     1      17.631  14.359  43.785  0.00  0.00    +0.000 C 
ATOM      8  C   UNL     1      16.747  14.350  44.796  0.00  0.00    +0.000 C 
BRANCH   7  10
ATOM      9  O   UNL     1      19.620  14.314  44.936  0.00  0.00    +0.000 OA
ATOM     10  C   UNL     1      19.089  14.587  43.879  0.00  0.00    +0.000 C 
ATOM     11  O   UNL     1      19.663  15.036  42.906  0.00  0.00    +0.000 OA
ENDBRANCH   7  10
ENDBRANCH   1   8
BRANCH   6  12
ATOM     12  O   UNL     1      11.194  13.431  44.493  0.00  0.00    +0.000 OA
ATOM     13  H   UNL     1      10.745  13.888  45.226  0.00  0.00    +0.000 HD
ENDBRANCH   6  12
TORSDOF 3
ENDMDL
MODEL 10
REMARK VINA RESULT:    -4.356      2.337      2.623
REMARK INTER + INTRA:          -5.127
REMARK INTER:                  -4.994
REMARK INTRA:                  -0.133
REMARK UNBOUND:                -0.135
REMARK  Name = opt82.pdb
REMARK  3 active torsions:
REMARK  status: ('A' for Active; 'I' for Inactive)
REMARK    1  A    between atoms: C_2  and  C_4
REMARK    2  A    between atoms: C_5  and  C_6
REMARK    3  A    between atoms: C_11  and  O_12
REMARK                            x       y       z     vdW  Elec       q    Type
REMARK                         _______ _______ _______ _____ _____    ______ ____
ROOT
ATOM      1  C   UNL     1      13.502  14.624  44.769  0.00  0.00    +0.000 A 
ATOM      2  C   UNL     1      14.271  15.774  44.573  0.00  0.00    +0.000 A 
ATOM      3  C   UNL     1      14.123  13.446  45.187  0.00  0.00    +0.000 A 
ATOM      4  C   UNL     1      15.647  15.744  44.790  0.00  0.00    +0.000 A 
ATOM      5  C   UNL     1      15.498  13.416  45.409  0.00  0.00    +0.000 A 
ATOM      6  C   UNL     1      16.263  14.564  45.209  0.00  0.00    +0.000 A 
ENDROOT
BRANCH   1   8
ATOM      7  C   UNL     1      11.239  13.642  44.184  0.00  0.00    +0.000 C 
ATOM      8  C   UNL     1      12.041  14.653  44.555  0.00  0.00    +0.000 C 
BRANCH   7  10
ATOM      9  O   UNL     1       9.399  13.920  42.833  0.00  0.00    +0.000 OA
ATOM     10  C   UNL     1       9.777  13.700  43.966  0.00  0.00    +0.000 C 
ATOM     11  O   UNL     1       9.048  13.532  44.923  0.00  0.00    +0.000 OA
ENDBRANCH   7  10
ENDBRANCH   1   8
BRANCH   6  12
ATOM     12  O   UNL     1      17.609  14.534  45.428  0.00  0.00    +0.000 OA
ATOM     13  H   UNL     1      17.878  15.342  45.899  0.00  0.00    +0.000 HD
ENDBRANCH   6  12
TORSDOF 3
ENDMDL
MODEL 11
REMARK VINA RESULT:    -4.325      4.013      4.681
REMARK INTER + INTRA:          -5.092
REMARK INTER:                  -4.963
REMARK INTRA:                  -0.129
REMARK UNBOUND:                -0.135
REMARK  Name = opt82.pdb
REMARK  3 active torsions:
REMARK  status: ('A' for Active; 'I' for Inactive)
REMARK    1  A    between atoms: C_2  and  C_4
REMARK    2  A    between atoms: C_5  and  C_6
REMARK    3  A    between atoms: C_11  and  O_12
REMARK                            x       y       z     vdW  Elec       q    Type
REMARK                         _______ _______ _______ _____ _____    ______ ____
ROOT
ATOM      1  C   UNL     1      13.069  14.628  44.607  0.00  0.00    +0.000 A 
ATOM      2  C   UNL     1      12.324  13.515  44.209  0.00  0.00    +0.000 A 
ATOM      3  C   UNL     1      14.428  14.480  44.889  0.00  0.00    +0.000 A 
ATOM      4  C   UNL     1      12.933  12.266  44.097  0.00  0.00    +0.000 A 
ATOM      5  C   UNL     1      15.039  13.233  44.771  0.00  0.00    +0.000 A 
ATOM      6  C   UNL     1      14.292  12.124  44.377  0.00  0.00    +0.000 A 
ENDROOT
BRANCH   1   8
ATOM      7  C   UNL     1      11.828  16.666  43.748  0.00  0.00    +0.000 C 
ATOM      8  C   UNL     1      12.432  15.957  44.715  0.00  0.00    +0.000 C 
BRANCH   7  10
ATOM      9  O   UNL     1      10.061  18.113  43.495  0.00  0.00    +0.000 OA
ATOM     10  C   UNL     1      11.207  18.001  43.880  0.00  0.00    +0.000 C 
ATOM     11  O   UNL     1      11.873  18.900  44.354  0.00  0.00    +0.000 OA
ENDBRANCH   7  10
ENDBRANCH   1   8
BRANCH   6  12
ATOM     12  O   UNL     1      14.892  10.905  44.261  0.00  0.00    +0.000 OA
ATOM     13  H   UNL     1      15.756  10.926  44.708  0.00  0.00    +0.000 HD
ENDBRANCH   6  12
TORSDOF 3
ENDMDL
MODEL 12
REMARK VINA RESULT:    -4.297      3.003      3.745
REMARK INTER + INTRA:          -5.060
REMARK INTER:                  -4.930
REMARK INTRA:                  -0.130
REMARK UNBOUND:                -0.135
REMARK  Name = opt82.pdb
REMARK  3 active torsions:
REMARK  status: ('A' for Active; 'I' for Inactive)
REMARK    1  A    between atoms: C_2  and  C_4
REMARK    2  A    between atoms: C_5  and  C_6
REMARK    3  A    between atoms: C_11  and  O_12
REMARK                            x       y       z     vdW  Elec       q    Type
REMARK                         _______ _______ _______ _____ _____    ______ ____
ROOT
ATOM      1  C   UNL     1      11.428  14.342  44.590  0.00  0.00    +0.000 A 
ATOM      2  C   UNL     1      12.582  13.563  44.695  0.00  0.00    +0.000 A 
ATOM      3  C   UNL     1      11.540  15.732  44.534  0.00  0.00    +0.000 A 
ATOM      4  C   UNL     1      13.836  14.169  44.747  0.00  0.00    +0.000 A 
ATOM      5  C   UNL     1      12.794  16.339  44.581  0.00  0.00    +0.000 A 
ATOM      6  C   UNL     1      13.943  15.558  44.689  0.00  0.00    +0.000 A 
ENDROOT
BRANCH   1   8
ATOM      7  C   UNL     1       9.618  12.888  43.569  0.00  0.00    +0.000 C 
ATOM      8  C   UNL     1      10.096  13.706  44.520  0.00  0.00    +0.000 C 
BRANCH   7  10
ATOM      9  O   UNL     1       7.352  12.930  43.946  0.00  0.00    +0.000 OA
ATOM     10  C   UNL     1       8.276  12.271  43.517  0.00  0.00    +0.000 C 
ATOM     11  O   UNL     1       8.178  11.149  43.060  0.00  0.00    +0.000 OA
ENDBRANCH   7  10
ENDBRANCH   1   8
BRANCH   6  12
ATOM     12  O   UNL     1      15.170  16.153  44.733  0.00  0.00    +0.000 OA
ATOM     13  H   UNL     1      15.823  15.523  45.086  0.00  0.00    +0.000 HD
ENDBRANCH   6  12
TORSDOF 3
ENDMDL
MODEL 13
REMARK VINA RESULT:    -4.211      2.024      2.857
REMARK INTER + INTRA:          -4.962
REMARK INTER:                  -4.824
REMARK INTRA:                  -0.138
REMARK UNBOUND:                -0.135
REMARK  Name = opt82.pdb
REMARK  3 active torsions:
REMARK  status: ('A' for Active; 'I' for Inactive)
REMARK    1  A    between atoms: C_2  and  C_4
REMARK    2  A    between atoms: C_5  and  C_6
REMARK    3  A    between atoms: C_11  and  O_12
REMARK                            x       y       z     vdW  Elec       q    Type
REMARK                         _______ _______ _______ _____ _____    ______ ____
ROOT
ATOM      1  C   UNL     1      12.282  13.225  43.866  0.00  0.00    +0.000 A 
ATOM      2  C   UNL     1      12.960  12.449  42.923  0.00  0.00    +0.000 A 
ATOM      3  C   UNL     1      13.009  14.050  44.726  0.00  0.00    +0.000 A 
ATOM      4  C   UNL     1      14.350  12.494  42.845  0.00  0.00    +0.000 A 
ATOM      5  C   UNL     1      14.399  14.100  44.645  0.00  0.00    +0.000 A 
ATOM      6  C   UNL     1      15.072  13.321  43.705  0.00  0.00    +0.000 A 
ENDROOT
BRANCH   1   8
ATOM      7  C   UNL     1       9.955  12.464  43.206  0.00  0.00    +0.000 C 
ATOM      8  C   UNL     1      10.807  13.192  43.945  0.00  0.00    +0.000 C 
BRANCH   7  10
ATOM      9  O   UNL     1       7.988  12.979  44.278  0.00  0.00    +0.000 OA
ATOM     10  C   UNL     1       8.479  12.456  43.299  0.00  0.00    +0.000 C 
ATOM     11  O   UNL     1       7.851  11.927  42.403  0.00  0.00    +0.000 OA
ENDBRANCH   7  10
ENDBRANCH   1   8
BRANCH   6  12
ATOM     12  O   UNL     1      16.432  13.373  43.626  0.00  0.00    +0.000 OA
ATOM     13  H   UNL     1      16.819  12.927  44.400  0.00  0.00    +0.000 HD
ENDBRANCH   6  12
TORSDOF 3
ENDMDL
MODEL 14
REMARK VINA RESULT:    -4.115      2.123      2.999
REMARK INTER + INTRA:          -4.851
REMARK INTER:                  -4.712
REMARK INTRA:                  -0.139
REMARK UNBOUND:                -0.135
REMARK  Name = opt82.pdb
REMARK  3 active torsions:
REMARK  status: ('A' for Active; 'I' for Inactive)
REMARK    1  A    between atoms: C_2  and  C_4
REMARK    2  A    between atoms: C_5  and  C_6
REMARK    3  A    between atoms: C_11  and  O_12
REMARK                            x       y       z     vdW  Elec       q    Type
REMARK                         _______ _______ _______ _____ _____    ______ ____
ROOT
ATOM      1  C   UNL     1      12.295  13.376  43.914  0.00  0.00    +0.000 A 
ATOM      2  C   UNL     1      13.033  14.356  44.582  0.00  0.00    +0.000 A 
ATOM      3  C   UNL     1      12.961  12.400  43.172  0.00  0.00    +0.000 A 
ATOM      4  C   UNL     1      14.424  14.361  44.505  0.00  0.00    +0.000 A 
ATOM      5  C   UNL     1      14.353  12.401  43.099  0.00  0.00    +0.000 A 
ATOM      6  C   UNL     1      15.086  13.382  43.764  0.00  0.00    +0.000 A 
ENDROOT
BRANCH   1   8
ATOM      7  C   UNL     1       9.964  12.528  43.385  0.00  0.00    +0.000 C 
ATOM      8  C   UNL     1      10.820  13.357  44.003  0.00  0.00    +0.000 C 
BRANCH   7  10
ATOM      9  O   UNL     1       7.996  13.304  44.284  0.00  0.00    +0.000 OA
ATOM     10  C   UNL     1       8.489  12.536  43.483  0.00  0.00    +0.000 C 
ATOM     11  O   UNL     1       7.862  11.777  42.770  0.00  0.00    +0.000 OA
ENDBRANCH   7  10
ENDBRANCH   1   8
BRANCH   6  12
ATOM     12  O   UNL     1      16.448  13.381  43.692  0.00  0.00    +0.000 OA
ATOM     13  H   UNL     1      16.819  13.240  44.582  0.00  0.00    +0.000 HD
ENDBRANCH   6  12
TORSDOF 3
ENDMDL
MODEL 15
REMARK VINA RESULT:    -4.100      2.646      3.696
REMARK INTER + INTRA:          -4.834
REMARK INTER:                  -4.707
REMARK INTRA:                  -0.127
REMARK UNBOUND:                -0.135
REMARK  Name = opt82.pdb
REMARK  3 active torsions:
REMARK  status: ('A' for Active; 'I' for Inactive)
REMARK    1  A    between atoms: C_2  and  C_4
REMARK    2  A    between atoms: C_5  and  C_6
REMARK    3  A    between atoms: C_11  and  O_12
REMARK                            x       y       z     vdW  Elec       q    Type
REMARK                         _______ _______ _______ _____ _____    ______ ____
ROOT
ATOM      1  C   UNL     1      16.626  14.632  45.219  0.00  0.00    +0.000 A 
ATOM      2  C   UNL     1      17.807  14.248  44.579  0.00  0.00    +0.000 A 
ATOM      3  C   UNL     1      16.535  15.903  45.788  0.00  0.00    +0.000 A 
ATOM      4  C   UNL     1      18.887  15.127  44.511  0.00  0.00    +0.000 A 
ATOM      5  C   UNL     1      17.612  16.784  45.716  0.00  0.00    +0.000 A 
ATOM      6  C   UNL     1      18.790  16.397  45.079  0.00  0.00    +0.000 A 
ENDROOT
BRANCH   1   8
ATOM      7  C   UNL     1      14.455  13.598  44.415  0.00  0.00    +0.000 C 
ATOM      8  C   UNL     1      15.473  13.710  45.282  0.00  0.00    +0.000 C 
BRANCH   7  10
ATOM      9  O   UNL     1      12.202  13.172  44.574  0.00  0.00    +0.000 OA
ATOM     10  C   UNL     1      13.306  12.672  44.506  0.00  0.00    +0.000 C 
ATOM     11  O   UNL     1      13.531  11.478  44.515  0.00  0.00    +0.000 OA
ENDBRANCH   7  10
ENDBRANCH   1   8
BRANCH   6  12
ATOM     12  O   UNL     1      19.842  17.261  45.009  0.00  0.00    +0.000 OA
ATOM     13  H   UNL     1      20.590  16.825  44.562  0.00  0.00    +0.000 HD
ENDBRANCH   6  12
TORSDOF 3
ENDMDL
MODEL 16
REMARK VINA RESULT:    -4.052      3.525      5.992
REMARK INTER + INTRA:          -4.780
REMARK INTER:                  -4.646
REMARK INTRA:                  -0.134
REMARK UNBOUND:                -0.135
REMARK  Name = opt82.pdb
REMARK  3 active torsions:
REMARK  status: ('A' for Active; 'I' for Inactive)
REMARK    1  A    between atoms: C_2  and  C_4
REMARK    2  A    between atoms: C_5  and  C_6
REMARK    3  A    between atoms: C_11  and  O_12
REMARK                            x       y       z     vdW  Elec       q    Type
REMARK                         _______ _______ _______ _____ _____    ______ ____
ROOT
ATOM      1  C   UNL     1      14.282  15.274  44.626  0.00  0.00    +0.000 A 
ATOM      2  C   UNL     1      15.323  14.344  44.669  0.00  0.00    +0.000 A 
ATOM      3  C   UNL     1      12.961  14.825  44.611  0.00  0.00    +0.000 A 
ATOM      4  C   UNL     1      15.045  12.978  44.694  0.00  0.00    +0.000 A 
ATOM      5  C   UNL     1      12.681  13.460  44.642  0.00  0.00    +0.000 A 
ATOM      6  C   UNL     1      13.723  12.535  44.682  0.00  0.00    +0.000 A 
ENDROOT
BRANCH   1   8
ATOM      7  C   UNL     1      15.506  17.387  45.309  0.00  0.00    +0.000 C 
ATOM      8  C   UNL     1      14.570  16.723  44.613  0.00  0.00    +0.000 C 
BRANCH   7  10
ATOM      9  O   UNL     1      16.509  19.280  46.142  0.00  0.00    +0.000 OA
ATOM     10  C   UNL     1      15.768  18.842  45.286  0.00  0.00    +0.000 C 
ATOM     11  O   UNL     1      15.228  19.508  44.425  0.00  0.00    +0.000 OA
ENDBRANCH   7  10
ENDBRANCH   1   8
BRANCH   6  12
ATOM     12  O   UNL     1      13.448  11.199  44.714  0.00  0.00    +0.000 OA
ATOM     13  H   UNL     1      13.833  10.771  43.929  0.00  0.00    +0.000 HD
ENDBRANCH   6  12
TORSDOF 3
ENDMDL
MODEL 17
REMARK VINA RESULT:    -4.024      2.654      6.287
REMARK INTER + INTRA:          -4.747
REMARK INTER:                  -4.620
REMARK INTRA:                  -0.128
REMARK UNBOUND:                -0.135
REMARK  Name = opt82.pdb
REMARK  3 active torsions:
REMARK  status: ('A' for Active; 'I' for Inactive)
REMARK    1  A    between atoms: C_2  and  C_4
REMARK    2  A    between atoms: C_5  and  C_6
REMARK    3  A    between atoms: C_11  and  O_12
REMARK                            x       y       z     vdW  Elec       q    Type
REMARK                         _______ _______ _______ _____ _____    ______ ____
ROOT
ATOM      1  C   UNL     1      10.961  13.330  43.522  0.00  0.00    +0.000 A 
ATOM      2  C   UNL     1      10.407  12.762  42.372  0.00  0.00    +0.000 A 
ATOM      3  C   UNL     1      10.118  13.782  44.539  0.00  0.00    +0.000 A 
ATOM      4  C   UNL     1       9.024  12.651  42.240  0.00  0.00    +0.000 A 
ATOM      5  C   UNL     1       8.736  13.666  44.410  0.00  0.00    +0.000 A 
ATOM      6  C   UNL     1       8.186  13.102  43.260  0.00  0.00    +0.000 A 
ENDROOT
BRANCH   1   8
ATOM      7  C   UNL     1      13.230  12.725  44.479  0.00  0.00    +0.000 C 
ATOM      8  C   UNL     1      12.426  13.438  43.674  0.00  0.00    +0.000 C 
BRANCH   7  10
ATOM      9  O   UNL     1      15.381  12.292  43.795  0.00  0.00    +0.000 OA
ATOM     10  C   UNL     1      14.695  12.859  44.621  0.00  0.00    +0.000 C 
ATOM     11  O   UNL     1      15.124  13.517  45.548  0.00  0.00    +0.000 OA
ENDBRANCH   7  10
ENDBRANCH   1   8
BRANCH   6  12
ATOM     12  O   UNL     1       6.833  12.988  43.136  0.00  0.00    +0.000 OA
ATOM     13  H   UNL     1       6.486  12.444  43.865  0.00  0.00    +0.000 HD
ENDBRANCH   6  12
TORSDOF 3
ENDMDL
