MODEL 1
REMARK VINA RESULT:    -6.753      0.000      0.000
REMARK INTER + INTRA:          -7.789
REMARK INTER:                  -7.740
REMARK INTRA:                  -0.049
REMARK UNBOUND:                -0.049
REMARK  Name = opt51.pdb
REMARK  4 active torsions:
REMARK  status: ('A' for Active; 'I' for Inactive)
REMARK    1  A    between atoms: C_5  and  O_9
REMARK    2  A    between atoms: C_7  and  O_13
REMARK    3  A    between atoms: C_16  and  C_19
REMARK    4  A    between atoms: C_19  and  O_20
REMARK                            x       y       z     vdW  Elec       q    Type
REMARK                         _______ _______ _______ _____ _____    ______ ____
ROOT
ATOM      1  O   UNL     1      11.944  11.278  43.494  0.00  0.00    +0.000 OA
ATOM      2  C   UNL     1      11.928  12.470  43.747  0.00  0.00    +0.000 C 
ATOM      3  C   UNL     1      13.197  13.184  44.136  0.00  0.00    +0.000 A 
ATOM      4  C   UNL     1      10.641  13.249  43.676  0.00  0.00    +0.000 A 
ATOM      5  C   UNL     1      14.425  12.498  44.205  0.00  0.00    +0.000 A 
ATOM      6  C   UNL     1      13.167  14.551  44.439  0.00  0.00    +0.000 A 
ATOM      7  C   UNL     1       9.431  12.622  43.320  0.00  0.00    +0.000 A 
ATOM      8  C   UNL     1      10.636  14.620  43.964  0.00  0.00    +0.000 A 
ATOM      9  C   UNL     1      15.589  13.167  44.577  0.00  0.00    +0.000 A 
ATOM     10  C   UNL     1      11.891  15.332  44.365  0.00  0.00    +0.000 C 
ATOM     11  C   UNL     1      14.344  15.207  44.819  0.00  0.00    +0.000 A 
ATOM     12  C   UNL     1       8.250  13.356  43.241  0.00  0.00    +0.000 A 
ATOM     13  C   UNL     1       9.441  15.345  43.882  0.00  0.00    +0.000 A 
ATOM     14  C   UNL     1      15.555  14.522  44.890  0.00  0.00    +0.000 A 
ATOM     15  O   UNL     1      11.874  16.520  44.624  0.00  0.00    +0.000 OA
ATOM     16  C   UNL     1       8.254  14.717  43.519  0.00  0.00    +0.000 A 
ENDROOT
BRANCH   5  17
ATOM     17  O   UNL     1      14.523  11.167  43.910  0.00  0.00    +0.000 OA
ATOM     18  H   UNL     1      14.330  10.652  44.736  0.00  0.00    +0.000 HD
ENDBRANCH   5  17
BRANCH   7  19
ATOM     19  O   UNL     1       9.366  11.285  43.044  0.00  0.00    +0.000 OA
ATOM     20  H   UNL     1       8.472  10.957  43.321  0.00  0.00    +0.000 HD
ENDBRANCH   7  19
BRANCH  14  21
ATOM     21  C   UNL     1      16.819  15.250  45.318  0.00  0.00    +0.000 C 
BRANCH  21  22
ATOM     22  O   UNL     1      17.868  14.315  45.576  0.00  0.00    +0.000 OA
ATOM     23  H   UNL     1      17.780  13.568  44.956  0.00  0.00    +0.000 HD
ENDBRANCH  21  22
ENDBRANCH  14  21
TORSDOF 4
ENDMDL
MODEL 2
REMARK VINA RESULT:    -6.702      0.959      1.074
REMARK INTER + INTRA:          -7.731
REMARK INTER:                  -7.689
REMARK INTRA:                  -0.042
REMARK UNBOUND:                -0.049
REMARK  Name = opt51.pdb
REMARK  4 active torsions:
REMARK  status: ('A' for Active; 'I' for Inactive)
REMARK    1  A    between atoms: C_5  and  O_9
REMARK    2  A    between atoms: C_7  and  O_13
REMARK    3  A    between atoms: C_16  and  C_19
REMARK    4  A    between atoms: C_19  and  O_20
REMARK                            x       y       z     vdW  Elec       q    Type
REMARK                         _______ _______ _______ _____ _____    ______ ____
ROOT
ATOM      1  O   UNL     1      10.683  11.358  43.281  0.00  0.00    +0.000 OA
ATOM      2  C   UNL     1      10.963  12.517  43.527  0.00  0.00    +0.000 C 
ATOM      3  C   UNL     1      12.363  12.893  43.938  0.00  0.00    +0.000 A 
ATOM      4  C   UNL     1       9.915  13.594  43.425  0.00  0.00    +0.000 A 
ATOM      5  C   UNL     1      13.378  11.922  44.036  0.00  0.00    +0.000 A 
ATOM      6  C   UNL     1      12.673  14.228  44.233  0.00  0.00    +0.000 A 
ATOM      7  C   UNL     1       8.593  13.288  43.048  0.00  0.00    +0.000 A 
ATOM      8  C   UNL     1      10.249  14.926  43.705  0.00  0.00    +0.000 A 
ATOM      9  C   UNL     1      14.666  12.280  44.428  0.00  0.00    +0.000 A 
ATOM     10  C   UNL     1      11.635  15.303  44.128  0.00  0.00    +0.000 C 
ATOM     11  C   UNL     1      13.970  14.570  44.632  0.00  0.00    +0.000 A 
ATOM     12  C   UNL     1       7.636  14.295  42.941  0.00  0.00    +0.000 A 
ATOM     13  C   UNL     1       9.277  15.927  43.595  0.00  0.00    +0.000 A 
ATOM     14  C   UNL     1      14.968  13.604  44.732  0.00  0.00    +0.000 A 
ATOM     15  O   UNL     1      11.914  16.460  44.379  0.00  0.00    +0.000 OA
ATOM     16  C   UNL     1       7.977  15.613  43.211  0.00  0.00    +0.000 A 
ENDROOT
BRANCH   5  17
ATOM     17  O   UNL     1      13.143  10.605  43.751  0.00  0.00    +0.000 OA
ATOM     18  H   UNL     1      13.994  10.199  43.442  0.00  0.00    +0.000 HD
ENDBRANCH   5  17
BRANCH   7  19
ATOM     19  O   UNL     1       8.198  12.007  42.779  0.00  0.00    +0.000 OA
ATOM     20  H   UNL     1       8.859  11.390  43.186  0.00  0.00    +0.000 HD
ENDBRANCH   7  19
BRANCH  14  21
ATOM     21  C   UNL     1      16.366  13.994  45.182  0.00  0.00    +0.000 C 
BRANCH  21  22
ATOM     22  O   UNL     1      16.569  13.632  46.548  0.00  0.00    +0.000 OA
ATOM     23  H   UNL     1      17.445  13.950  46.830  0.00  0.00    +0.000 HD
ENDBRANCH  21  22
ENDBRANCH  14  21
TORSDOF 4
ENDMDL
MODEL 3
REMARK VINA RESULT:    -6.668      1.218      1.614
REMARK INTER + INTRA:          -7.692
REMARK INTER:                  -7.651
REMARK INTRA:                  -0.041
REMARK UNBOUND:                -0.049
REMARK  Name = opt51.pdb
REMARK  4 active torsions:
REMARK  status: ('A' for Active; 'I' for Inactive)
REMARK    1  A    between atoms: C_5  and  O_9
REMARK    2  A    between atoms: C_7  and  O_13
REMARK    3  A    between atoms: C_16  and  C_19
REMARK    4  A    between atoms: C_19  and  O_20
REMARK                            x       y       z     vdW  Elec       q    Type
REMARK                         _______ _______ _______ _____ _____    ______ ____
ROOT
ATOM      1  O   UNL     1      10.414  12.381  43.720  0.00  0.00    +0.000 OA
ATOM      2  C   UNL     1      10.958  13.460  43.873  0.00  0.00    +0.000 C 
ATOM      3  C   UNL     1      12.438  13.537  44.144  0.00  0.00    +0.000 A 
ATOM      4  C   UNL     1      10.160  14.735  43.796  0.00  0.00    +0.000 A 
ATOM      5  C   UNL     1      13.225  12.371  44.214  0.00  0.00    +0.000 A 
ATOM      6  C   UNL     1      13.053  14.781  44.333  0.00  0.00    +0.000 A 
ATOM      7  C   UNL     1       8.774  14.711  43.548  0.00  0.00    +0.000 A 
ATOM      8  C   UNL     1      10.797  15.972  43.969  0.00  0.00    +0.000 A 
ATOM      9  C   UNL     1      14.591  12.455  44.476  0.00  0.00    +0.000 A 
ATOM     10  C   UNL     1      12.265  16.053  44.252  0.00  0.00    +0.000 C 
ATOM     11  C   UNL     1      14.425  14.847  44.603  0.00  0.00    +0.000 A 
ATOM     12  C   UNL     1       8.049  15.898  43.462  0.00  0.00    +0.000 A 
ATOM     13  C   UNL     1      10.055  17.156  43.880  0.00  0.00    +0.000 A 
ATOM     14  C   UNL     1      15.197  13.691  44.676  0.00  0.00    +0.000 A 
ATOM     15  O   UNL     1      12.807  17.129  44.411  0.00  0.00    +0.000 OA
ATOM     16  C   UNL     1       8.689  17.119  43.625  0.00  0.00    +0.000 A 
ENDROOT
BRANCH   5  17
ATOM     17  O   UNL     1      12.688  11.128  44.027  0.00  0.00    +0.000 OA
ATOM     18  H   UNL     1      13.315  10.600  43.468  0.00  0.00    +0.000 HD
ENDBRANCH   5  17
BRANCH   7  19
ATOM     19  O   UNL     1       8.090  13.538  43.388  0.00  0.00    +0.000 OA
ATOM     20  H   UNL     1       7.367  13.691  42.728  0.00  0.00    +0.000 HD
ENDBRANCH   7  19
BRANCH  14  21
ATOM     21  C   UNL     1      16.683  13.783  44.984  0.00  0.00    +0.000 C 
BRANCH  21  22
ATOM     22  O   UNL     1      16.908  13.663  46.389  0.00  0.00    +0.000 OA
ATOM     23  H   UNL     1      16.232  13.070  46.765  0.00  0.00    +0.000 HD
ENDBRANCH  21  22
ENDBRANCH  14  21
TORSDOF 4
ENDMDL
MODEL 4
REMARK VINA RESULT:    -6.585      2.563      6.604
REMARK INTER + INTRA:          -7.596
REMARK INTER:                  -7.544
REMARK INTRA:                  -0.052
REMARK UNBOUND:                -0.049
REMARK  Name = opt51.pdb
REMARK  4 active torsions:
REMARK  status: ('A' for Active; 'I' for Inactive)
REMARK    1  A    between atoms: C_5  and  O_9
REMARK    2  A    between atoms: C_7  and  O_13
REMARK    3  A    between atoms: C_16  and  C_19
REMARK    4  A    between atoms: C_19  and  O_20
REMARK                            x       y       z     vdW  Elec       q    Type
REMARK                         _______ _______ _______ _____ _____    ______ ____
ROOT
ATOM      1  O   UNL     1      13.562  17.599  44.907  0.00  0.00    +0.000 OA
ATOM      2  C   UNL     1      14.508  16.839  45.016  0.00  0.00    +0.000 C 
ATOM      3  C   UNL     1      14.328  15.360  44.792  0.00  0.00    +0.000 A 
ATOM      4  C   UNL     1      15.873  17.365  45.375  0.00  0.00    +0.000 A 
ATOM      5  C   UNL     1      13.073  14.825  44.444  0.00  0.00    +0.000 A 
ATOM      6  C   UNL     1      15.418  14.492  44.933  0.00  0.00    +0.000 A 
ATOM      7  C   UNL     1      16.086  18.740  45.595  0.00  0.00    +0.000 A 
ATOM      8  C   UNL     1      16.955  16.483  45.492  0.00  0.00    +0.000 A 
ATOM      9  C   UNL     1      12.916  13.454  44.252  0.00  0.00    +0.000 A 
ATOM     10  C   UNL     1      16.778  15.010  45.286  0.00  0.00    +0.000 C 
ATOM     11  C   UNL     1      15.243  13.116  44.744  0.00  0.00    +0.000 A 
ATOM     12  C   UNL     1      17.357  19.217  45.911  0.00  0.00    +0.000 A 
ATOM     13  C   UNL     1      18.226  16.977  45.811  0.00  0.00    +0.000 A 
ATOM     14  C   UNL     1      13.998  12.592  44.405  0.00  0.00    +0.000 A 
ATOM     15  O   UNL     1      17.721  14.251  45.400  0.00  0.00    +0.000 OA
ATOM     16  C   UNL     1      18.426  18.338  46.016  0.00  0.00    +0.000 A 
ENDROOT
BRANCH   5  17
ATOM     17  O   UNL     1      11.972  15.619  44.281  0.00  0.00    +0.000 OA
ATOM     18  H   UNL     1      11.279  15.326  44.928  0.00  0.00    +0.000 HD
ENDBRANCH   5  17
BRANCH   7  19
ATOM     19  O   UNL     1      15.069  19.650  45.514  0.00  0.00    +0.000 OA
ATOM     20  H   UNL     1      14.332  19.240  44.993  0.00  0.00    +0.000 HD
ENDBRANCH   7  19
BRANCH  14  21
ATOM     21  C   UNL     1      13.825  11.094  44.218  0.00  0.00    +0.000 C 
BRANCH  21  22
ATOM     22  O   UNL     1      14.990  10.399  44.666  0.00  0.00    +0.000 OA
ATOM     23  H   UNL     1      14.722   9.728  45.319  0.00  0.00    +0.000 HD
ENDBRANCH  21  22
ENDBRANCH  14  21
TORSDOF 4
ENDMDL
MODEL 5
REMARK VINA RESULT:    -6.476      1.082      1.390
REMARK INTER + INTRA:          -7.472
REMARK INTER:                  -7.425
REMARK INTRA:                  -0.047
REMARK UNBOUND:                -0.049
REMARK  Name = opt51.pdb
REMARK  4 active torsions:
REMARK  status: ('A' for Active; 'I' for Inactive)
REMARK    1  A    between atoms: C_5  and  O_9
REMARK    2  A    between atoms: C_7  and  O_13
REMARK    3  A    between atoms: C_16  and  C_19
REMARK    4  A    between atoms: C_19  and  O_20
REMARK                            x       y       z     vdW  Elec       q    Type
REMARK                         _______ _______ _______ _____ _____    ______ ____
ROOT
ATOM      1  O   UNL     1      12.399  12.137  44.080  0.00  0.00    +0.000 OA
ATOM      2  C   UNL     1      12.622  13.331  44.170  0.00  0.00    +0.000 C 
ATOM      3  C   UNL     1      14.014  13.827  44.463  0.00  0.00    +0.000 A 
ATOM      4  C   UNL     1      11.510  14.331  43.990  0.00  0.00    +0.000 A 
ATOM      5  C   UNL     1      15.086  12.929  44.628  0.00  0.00    +0.000 A 
ATOM      6  C   UNL     1      14.259  15.202  44.580  0.00  0.00    +0.000 A 
ATOM      7  C   UNL     1      10.193  13.912  43.717  0.00  0.00    +0.000 A 
ATOM      8  C   UNL     1      11.778  15.702  44.091  0.00  0.00    +0.000 A 
ATOM      9  C   UNL     1      16.367  13.400  44.911  0.00  0.00    +0.000 A 
ATOM     10  C   UNL     1      13.157  16.200  44.397  0.00  0.00    +0.000 C 
ATOM     11  C   UNL     1      15.549  15.658  44.871  0.00  0.00    +0.000 A 
ATOM     12  C   UNL     1       9.176  14.847  43.537  0.00  0.00    +0.000 A 
ATOM     13  C   UNL     1      10.746  16.630  43.908  0.00  0.00    +0.000 A 
ATOM     14  C   UNL     1      16.605  14.765  45.038  0.00  0.00    +0.000 A 
ATOM     15  O   UNL     1      13.379  17.392  44.493  0.00  0.00    +0.000 OA
ATOM     16  C   UNL     1       9.452  16.204  43.629  0.00  0.00    +0.000 A 
ENDROOT
BRANCH   5  17
ATOM     17  O   UNL     1      14.916  11.577  44.516  0.00  0.00    +0.000 OA
ATOM     18  H   UNL     1      15.373  11.275  43.688  0.00  0.00    +0.000 HD
ENDBRANCH   5  17
BRANCH   7  19
ATOM     19  O   UNL     1       9.862  12.589  43.624  0.00  0.00    +0.000 OA
ATOM     20  H   UNL     1      10.080  12.156  44.490  0.00  0.00    +0.000 HD
ENDBRANCH   7  19
BRANCH  14  21
ATOM     21  C   UNL     1      17.996  15.280  45.369  0.00  0.00    +0.000 C 
BRANCH  21  22
ATOM     22  O   UNL     1      18.990  14.429  44.797  0.00  0.00    +0.000 OA
ATOM     23  H   UNL     1      19.323  13.829  45.488  0.00  0.00    +0.000 HD
ENDBRANCH  21  22
ENDBRANCH  14  21
TORSDOF 4
ENDMDL
MODEL 6
REMARK VINA RESULT:    -6.337      1.216      5.682
REMARK INTER + INTRA:          -7.312
REMARK INTER:                  -7.263
REMARK INTRA:                  -0.049
REMARK UNBOUND:                -0.049
REMARK  Name = opt51.pdb
REMARK  4 active torsions:
REMARK  status: ('A' for Active; 'I' for Inactive)
REMARK    1  A    between atoms: C_5  and  O_9
REMARK    2  A    between atoms: C_7  and  O_13
REMARK    3  A    between atoms: C_16  and  C_19
REMARK    4  A    between atoms: C_19  and  O_20
REMARK                            x       y       z     vdW  Elec       q    Type
REMARK                         _______ _______ _______ _____ _____    ______ ____
ROOT
ATOM      1  O   UNL     1      11.947  11.391  43.518  0.00  0.00    +0.000 OA
ATOM      2  C   UNL     1      12.006  12.577  43.788  0.00  0.00    +0.000 C 
ATOM      3  C   UNL     1      10.769  13.436  43.726  0.00  0.00    +0.000 A 
ATOM      4  C   UNL     1      13.315  13.205  44.189  0.00  0.00    +0.000 A 
ATOM      5  C   UNL     1       9.522  12.889  43.368  0.00  0.00    +0.000 A 
ATOM      6  C   UNL     1      10.849  14.802  44.025  0.00  0.00    +0.000 A 
ATOM      7  C   UNL     1      14.496  12.441  44.258  0.00  0.00    +0.000 A 
ATOM      8  C   UNL     1      13.370  14.570  44.503  0.00  0.00    +0.000 A 
ATOM      9  C   UNL     1       8.388  13.696  43.302  0.00  0.00    +0.000 A 
ATOM     10  C   UNL     1      12.147  15.431  44.428  0.00  0.00    +0.000 C 
ATOM     11  C   UNL     1       9.702  15.600  43.947  0.00  0.00    +0.000 A 
ATOM     12  C   UNL     1      15.698  13.030  44.646  0.00  0.00    +0.000 A 
ATOM     13  C   UNL     1      14.585  15.148  44.890  0.00  0.00    +0.000 A 
ATOM     14  C   UNL     1       8.472  15.055  43.587  0.00  0.00    +0.000 A 
ATOM     15  O   UNL     1      12.207  16.616  44.692  0.00  0.00    +0.000 OA
ATOM     16  C   UNL     1      15.743  14.381  44.964  0.00  0.00    +0.000 A 
ENDROOT
BRANCH   5  17
ATOM     17  O   UNL     1       9.376  11.562  43.075  0.00  0.00    +0.000 OA
ATOM     18  H   UNL     1       9.006  11.107  43.876  0.00  0.00    +0.000 HD
ENDBRANCH   5  17
BRANCH   7  19
ATOM     19  O   UNL     1      14.513  11.110  43.947  0.00  0.00    +0.000 OA
ATOM     20  H   UNL     1      15.460  10.827  43.863  0.00  0.00    +0.000 HD
ENDBRANCH   7  19
BRANCH  14  21
ATOM     21  C   UNL     1       7.241  15.942  43.495  0.00  0.00    +0.000 C 
BRANCH  21  22
ATOM     22  O   UNL     1       6.075  15.152  43.258  0.00  0.00    +0.000 OA
ATOM     23  H   UNL     1       5.729  14.841  44.114  0.00  0.00    +0.000 HD
ENDBRANCH  21  22
ENDBRANCH  14  21
TORSDOF 4
ENDMDL
MODEL 7
REMARK VINA RESULT:    -6.173      1.489      6.427
REMARK INTER + INTRA:          -7.124
REMARK INTER:                  -7.083
REMARK INTRA:                  -0.041
REMARK UNBOUND:                -0.049
REMARK  Name = opt51.pdb
REMARK  4 active torsions:
REMARK  status: ('A' for Active; 'I' for Inactive)
REMARK    1  A    between atoms: C_5  and  O_9
REMARK    2  A    between atoms: C_7  and  O_13
REMARK    3  A    between atoms: C_16  and  C_19
REMARK    4  A    between atoms: C_19  and  O_20
REMARK                            x       y       z     vdW  Elec       q    Type
REMARK                         _______ _______ _______ _____ _____    ______ ____
ROOT
ATOM      1  O   UNL     1      12.896  17.405  44.213  0.00  0.00    +0.000 OA
ATOM      2  C   UNL     1      13.016  16.200  44.345  0.00  0.00    +0.000 C 
ATOM      3  C   UNL     1      11.848  15.284  44.085  0.00  0.00    +0.000 A 
ATOM      4  C   UNL     1      14.334  15.605  44.768  0.00  0.00    +0.000 A 
ATOM      5  C   UNL     1      10.601  15.795  43.677  0.00  0.00    +0.000 A 
ATOM      6  C   UNL     1      11.991  13.900  44.253  0.00  0.00    +0.000 A 
ATOM      7  C   UNL     1      15.451  16.423  45.024  0.00  0.00    +0.000 A 
ATOM      8  C   UNL     1      14.462  14.217  44.911  0.00  0.00    +0.000 A 
ATOM      9  C   UNL     1       9.525  14.939  43.452  0.00  0.00    +0.000 A 
ATOM     10  C   UNL     1      13.300  13.304  44.669  0.00  0.00    +0.000 C 
ATOM     11  C   UNL     1      10.898  13.055  44.030  0.00  0.00    +0.000 A 
ATOM     12  C   UNL     1      16.669  15.860  45.399  0.00  0.00    +0.000 A 
ATOM     13  C   UNL     1      15.692  13.666  45.290  0.00  0.00    +0.000 A 
ATOM     14  C   UNL     1       9.665  13.566  43.631  0.00  0.00    +0.000 A 
ATOM     15  O   UNL     1      13.418  12.101  44.806  0.00  0.00    +0.000 OA
ATOM     16  C   UNL     1      16.791  14.483  45.530  0.00  0.00    +0.000 A 
ENDROOT
BRANCH   5  17
ATOM     17  O   UNL     1      10.399  17.133  43.485  0.00  0.00    +0.000 OA
ATOM     18  H   UNL     1      10.149  17.537  44.356  0.00  0.00    +0.000 HD
ENDBRANCH   5  17
BRANCH   7  19
ATOM     19  O   UNL     1      15.387  17.785  44.920  0.00  0.00    +0.000 OA
ATOM     20  H   UNL     1      15.913  18.057  44.125  0.00  0.00    +0.000 HD
ENDBRANCH   7  19
BRANCH  14  21
ATOM     21  C   UNL     1       8.487  12.632  43.408  0.00  0.00    +0.000 C 
BRANCH  21  22
ATOM     22  O   UNL     1       8.354  12.322  42.020  0.00  0.00    +0.000 OA
ATOM     23  H   UNL     1       9.161  11.864  41.723  0.00  0.00    +0.000 HD
ENDBRANCH  21  22
ENDBRANCH  14  21
TORSDOF 4
ENDMDL
MODEL 8
REMARK VINA RESULT:    -6.126      1.113      1.641
REMARK INTER + INTRA:          -7.070
REMARK INTER:                  -7.023
REMARK INTRA:                  -0.047
REMARK UNBOUND:                -0.049
REMARK  Name = opt51.pdb
REMARK  4 active torsions:
REMARK  status: ('A' for Active; 'I' for Inactive)
REMARK    1  A    between atoms: C_5  and  O_9
REMARK    2  A    between atoms: C_7  and  O_13
REMARK    3  A    between atoms: C_16  and  C_19
REMARK    4  A    between atoms: C_19  and  O_20
REMARK                            x       y       z     vdW  Elec       q    Type
REMARK                         _______ _______ _______ _____ _____    ______ ____
ROOT
ATOM      1  O   UNL     1      10.062  11.510  43.008  0.00  0.00    +0.000 OA
ATOM      2  C   UNL     1      10.288  12.675  43.282  0.00  0.00    +0.000 C 
ATOM      3  C   UNL     1      11.650  13.092  43.776  0.00  0.00    +0.000 A 
ATOM      4  C   UNL     1       9.211  13.718  43.134  0.00  0.00    +0.000 A 
ATOM      5  C   UNL     1      12.689  12.153  43.920  0.00  0.00    +0.000 A 
ATOM      6  C   UNL     1      11.897  14.432  44.103  0.00  0.00    +0.000 A 
ATOM      7  C   UNL     1       7.924  13.372  42.679  0.00  0.00    +0.000 A 
ATOM      8  C   UNL     1       9.484  15.056  43.447  0.00  0.00    +0.000 A 
ATOM      9  C   UNL     1      13.940  12.549  44.388  0.00  0.00    +0.000 A 
ATOM     10  C   UNL     1      10.831  15.473  43.952  0.00  0.00    +0.000 C 
ATOM     11  C   UNL     1      13.156  14.812  44.579  0.00  0.00    +0.000 A 
ATOM     12  C   UNL     1       6.941  14.348  42.529  0.00  0.00    +0.000 A 
ATOM     13  C   UNL     1       8.486  16.025  43.293  0.00  0.00    +0.000 A 
ATOM     14  C   UNL     1      14.180  13.878  44.724  0.00  0.00    +0.000 A 
ATOM     15  O   UNL     1      11.055  16.635  44.232  0.00  0.00    +0.000 OA
ATOM     16  C   UNL     1       7.221  15.674  42.834  0.00  0.00    +0.000 A 
ENDROOT
BRANCH   5  17
ATOM     17  O   UNL     1      12.516  10.834  43.607  0.00  0.00    +0.000 OA
ATOM     18  H   UNL     1      12.962  10.288  44.306  0.00  0.00    +0.000 HD
ENDBRANCH   5  17
BRANCH   7  19
ATOM     19  O   UNL     1       7.589  12.083  42.373  0.00  0.00    +0.000 OA
ATOM     20  H   UNL     1       6.720  12.096  41.895  0.00  0.00    +0.000 HD
ENDBRANCH   7  19
BRANCH  14  21
ATOM     21  C   UNL     1      15.537  14.309  45.256  0.00  0.00    +0.000 C 
BRANCH  21  22
ATOM     22  O   UNL     1      16.132  13.254  46.013  0.00  0.00    +0.000 OA
ATOM     23  H   UNL     1      16.511  13.629  46.828  0.00  0.00    +0.000 HD
ENDBRANCH  21  22
ENDBRANCH  14  21
TORSDOF 4
ENDMDL
MODEL 9
REMARK VINA RESULT:    -6.124      1.209      3.157
REMARK INTER + INTRA:          -7.069
REMARK INTER:                  -7.028
REMARK INTRA:                  -0.041
REMARK UNBOUND:                -0.049
REMARK  Name = opt51.pdb
REMARK  4 active torsions:
REMARK  status: ('A' for Active; 'I' for Inactive)
REMARK    1  A    between atoms: C_5  and  O_9
REMARK    2  A    between atoms: C_7  and  O_13
REMARK    3  A    between atoms: C_16  and  C_19
REMARK    4  A    between atoms: C_19  and  O_20
REMARK                            x       y       z     vdW  Elec       q    Type
REMARK                         _______ _______ _______ _____ _____    ______ ____
ROOT
ATOM      1  O   UNL     1      10.864  16.755  44.028  0.00  0.00    +0.000 OA
ATOM      2  C   UNL     1      11.174  15.579  43.955  0.00  0.00    +0.000 C 
ATOM      3  C   UNL     1      12.589  15.144  44.234  0.00  0.00    +0.000 A 
ATOM      4  C   UNL     1      10.147  14.541  43.585  0.00  0.00    +0.000 A 
ATOM      5  C   UNL     1      13.579  16.078  44.594  0.00  0.00    +0.000 A 
ATOM      6  C   UNL     1      12.939  13.791  44.134  0.00  0.00    +0.000 A 
ATOM      7  C   UNL     1       8.813  14.903  43.314  0.00  0.00    +0.000 A 
ATOM      8  C   UNL     1      10.512  13.190  43.510  0.00  0.00    +0.000 A 
ATOM      9  C   UNL     1      14.887  15.664  44.838  0.00  0.00    +0.000 A 
ATOM     10  C   UNL     1      11.921  12.754  43.772  0.00  0.00    +0.000 C 
ATOM     11  C   UNL     1      14.259  13.393  44.375  0.00  0.00    +0.000 A 
ATOM     12  C   UNL     1       7.869  13.932  42.989  0.00  0.00    +0.000 A 
ATOM     13  C   UNL     1       9.552  12.226  43.181  0.00  0.00    +0.000 A 
ATOM     14  C   UNL     1      15.236  14.322  44.726  0.00  0.00    +0.000 A 
ATOM     15  O   UNL     1      12.231  11.581  43.694  0.00  0.00    +0.000 OA
ATOM     16  C   UNL     1       8.236  12.594  42.925  0.00  0.00    +0.000 A 
ENDROOT
BRANCH   5  17
ATOM     17  O   UNL     1      13.300  17.410  44.719  0.00  0.00    +0.000 OA
ATOM     18  H   UNL     1      13.643  17.718  45.598  0.00  0.00    +0.000 HD
ENDBRANCH   5  17
BRANCH   7  19
ATOM     19  O   UNL     1       8.397  16.204  43.352  0.00  0.00    +0.000 OA
ATOM     20  H   UNL     1       8.377  16.548  42.423  0.00  0.00    +0.000 HD
ENDBRANCH   7  19
BRANCH  14  21
ATOM     21  C   UNL     1      16.666  13.871  44.970  0.00  0.00    +0.000 C 
BRANCH  21  22
ATOM     22  O   UNL     1      16.844  13.496  46.336  0.00  0.00    +0.000 OA
ATOM     23  H   UNL     1      17.783  13.284  46.483  0.00  0.00    +0.000 HD
ENDBRANCH  21  22
ENDBRANCH  14  21
TORSDOF 4
ENDMDL
MODEL 10
REMARK VINA RESULT:    -6.026      1.322      6.354
REMARK INTER + INTRA:          -6.956
REMARK INTER:                  -6.904
REMARK INTRA:                  -0.052
REMARK UNBOUND:                -0.049
REMARK  Name = opt51.pdb
REMARK  4 active torsions:
REMARK  status: ('A' for Active; 'I' for Inactive)
REMARK    1  A    between atoms: C_5  and  O_9
REMARK    2  A    between atoms: C_7  and  O_13
REMARK    3  A    between atoms: C_16  and  C_19
REMARK    4  A    between atoms: C_19  and  O_20
REMARK                            x       y       z     vdW  Elec       q    Type
REMARK                         _______ _______ _______ _____ _____    ______ ____
ROOT
ATOM      1  O   UNL     1      12.011  16.938  44.253  0.00  0.00    +0.000 OA
ATOM      2  C   UNL     1      12.158  15.729  44.234  0.00  0.00    +0.000 C 
ATOM      3  C   UNL     1      10.987  14.823  43.953  0.00  0.00    +0.000 A 
ATOM      4  C   UNL     1      13.511  15.120  44.491  0.00  0.00    +0.000 A 
ATOM      5  C   UNL     1       9.706  15.348  43.697  0.00  0.00    +0.000 A 
ATOM      6  C   UNL     1      11.162  13.433  43.947  0.00  0.00    +0.000 A 
ATOM      7  C   UNL     1      14.633  15.929  44.760  0.00  0.00    +0.000 A 
ATOM      8  C   UNL     1      13.670  13.728  44.461  0.00  0.00    +0.000 A 
ATOM      9  C   UNL     1       8.629  14.499  43.451  0.00  0.00    +0.000 A 
ATOM     10  C   UNL     1      12.507  12.822  44.197  0.00  0.00    +0.000 C 
ATOM     11  C   UNL     1      10.069  12.594  43.705  0.00  0.00    +0.000 A 
ATOM     12  C   UNL     1      15.883  15.355  44.980  0.00  0.00    +0.000 A 
ATOM     13  C   UNL     1      14.933  13.165  44.685  0.00  0.00    +0.000 A 
ATOM     14  C   UNL     1       8.803  13.119  43.457  0.00  0.00    +0.000 A 
ATOM     15  O   UNL     1      12.653  11.615  44.184  0.00  0.00    +0.000 OA
ATOM     16  C   UNL     1      16.034  13.975  44.940  0.00  0.00    +0.000 A 
ENDROOT
BRANCH   5  17
ATOM     17  O   UNL     1       9.472  16.695  43.678  0.00  0.00    +0.000 OA
ATOM     18  H   UNL     1      10.346  17.161  43.618  0.00  0.00    +0.000 HD
ENDBRANCH   5  17
BRANCH   7  19
ATOM     19  O   UNL     1      14.541  17.291  44.821  0.00  0.00    +0.000 OA
ATOM     20  H   UNL     1      15.370  17.636  45.242  0.00  0.00    +0.000 HD
ENDBRANCH   7  19
BRANCH  14  21
ATOM     21  C   UNL     1       7.626  12.190  43.210  0.00  0.00    +0.000 C 
BRANCH  21  22
ATOM     22  O   UNL     1       8.054  10.828  43.231  0.00  0.00    +0.000 OA
ATOM     23  H   UNL     1       7.547  10.350  43.912  0.00  0.00    +0.000 HD
ENDBRANCH  21  22
ENDBRANCH  14  21
TORSDOF 4
ENDMDL
MODEL 11
REMARK VINA RESULT:    -5.908      2.761      5.454
REMARK INTER + INTRA:          -6.821
REMARK INTER:                  -6.771
REMARK INTRA:                  -0.049
REMARK UNBOUND:                -0.049
REMARK  Name = opt51.pdb
REMARK  4 active torsions:
REMARK  status: ('A' for Active; 'I' for Inactive)
REMARK    1  A    between atoms: C_5  and  O_9
REMARK    2  A    between atoms: C_7  and  O_13
REMARK    3  A    between atoms: C_16  and  C_19
REMARK    4  A    between atoms: C_19  and  O_20
REMARK                            x       y       z     vdW  Elec       q    Type
REMARK                         _______ _______ _______ _____ _____    ______ ____
ROOT
ATOM      1  O   UNL     1      16.844  17.054  44.583  0.00  0.00    +0.000 OA
ATOM      2  C   UNL     1      15.656  16.791  44.617  0.00  0.00    +0.000 C 
ATOM      3  C   UNL     1      15.190  15.358  44.576  0.00  0.00    +0.000 A 
ATOM      4  C   UNL     1      14.631  17.892  44.700  0.00  0.00    +0.000 A 
ATOM      5  C   UNL     1      16.112  14.296  44.509  0.00  0.00    +0.000 A 
ATOM      6  C   UNL     1      13.821  15.064  44.601  0.00  0.00    +0.000 A 
ATOM      7  C   UNL     1      15.021  19.245  44.738  0.00  0.00    +0.000 A 
ATOM      8  C   UNL     1      13.267  17.577  44.744  0.00  0.00    +0.000 A 
ATOM      9  C   UNL     1      15.669  12.976  44.459  0.00  0.00    +0.000 A 
ATOM     10  C   UNL     1      12.798  16.156  44.689  0.00  0.00    +0.000 C 
ATOM     11  C   UNL     1      13.392  13.734  44.543  0.00  0.00    +0.000 A 
ATOM     12  C   UNL     1      14.065  20.254  44.832  0.00  0.00    +0.000 A 
ATOM     13  C   UNL     1      12.317  18.602  44.838  0.00  0.00    +0.000 A 
ATOM     14  C   UNL     1      14.308  12.687  44.472  0.00  0.00    +0.000 A 
ATOM     15  O   UNL     1      11.611  15.893  44.717  0.00  0.00    +0.000 OA
ATOM     16  C   UNL     1      12.715  19.934  44.885  0.00  0.00    +0.000 A 
ENDROOT
BRANCH   5  17
ATOM     17  O   UNL     1      17.462  14.515  44.492  0.00  0.00    +0.000 OA
ATOM     18  H   UNL     1      17.910  13.716  44.874  0.00  0.00    +0.000 HD
ENDBRANCH   5  17
BRANCH   7  19
ATOM     19  O   UNL     1      16.334  19.619  44.681  0.00  0.00    +0.000 OA
ATOM     20  H   UNL     1      16.647  19.499  43.748  0.00  0.00    +0.000 HD
ENDBRANCH   7  19
BRANCH  14  21
ATOM     21  C   UNL     1      13.822  11.249  44.395  0.00  0.00    +0.000 C 
BRANCH  21  22
ATOM     22  O   UNL     1      14.927  10.347  44.447  0.00  0.00    +0.000 OA
ATOM     23  H   UNL     1      14.743   9.665  45.118  0.00  0.00    +0.000 HD
ENDBRANCH  21  22
ENDBRANCH  14  21
TORSDOF 4
ENDMDL
MODEL 12
REMARK VINA RESULT:    -5.893      1.418      5.741
REMARK INTER + INTRA:          -6.804
REMARK INTER:                  -6.754
REMARK INTRA:                  -0.050
REMARK UNBOUND:                -0.049
REMARK  Name = opt51.pdb
REMARK  4 active torsions:
REMARK  status: ('A' for Active; 'I' for Inactive)
REMARK    1  A    between atoms: C_5  and  O_9
REMARK    2  A    between atoms: C_7  and  O_13
REMARK    3  A    between atoms: C_16  and  C_19
REMARK    4  A    between atoms: C_19  and  O_20
REMARK                            x       y       z     vdW  Elec       q    Type
REMARK                         _______ _______ _______ _____ _____    ______ ____
ROOT
ATOM      1  O   UNL     1      16.420  13.459  44.427  0.00  0.00    +0.000 OA
ATOM      2  C   UNL     1      15.457  14.200  44.515  0.00  0.00    +0.000 C 
ATOM      3  C   UNL     1      14.073  13.692  44.204  0.00  0.00    +0.000 A 
ATOM      4  C   UNL     1      15.633  15.636  44.935  0.00  0.00    +0.000 A 
ATOM      5  C   UNL     1      13.859  12.355  43.819  0.00  0.00    +0.000 A 
ATOM      6  C   UNL     1      12.972  14.555  44.294  0.00  0.00    +0.000 A 
ATOM      7  C   UNL     1      16.909  16.154  45.232  0.00  0.00    +0.000 A 
ATOM      8  C   UNL     1      14.518  16.478  45.037  0.00  0.00    +0.000 A 
ATOM      9  C   UNL     1      12.576  11.900  43.522  0.00  0.00    +0.000 A 
ATOM     10  C   UNL     1      13.142  15.982  44.716  0.00  0.00    +0.000 C 
ATOM     11  C   UNL     1      11.691  14.084  43.986  0.00  0.00    +0.000 A 
ATOM     12  C   UNL     1      17.058  17.479  45.635  0.00  0.00    +0.000 A 
ATOM     13  C   UNL     1      14.683  17.808  45.443  0.00  0.00    +0.000 A 
ATOM     14  C   UNL     1      11.486  12.761  43.600  0.00  0.00    +0.000 A 
ATOM     15  O   UNL     1      12.182  16.723  44.797  0.00  0.00    +0.000 OA
ATOM     16  C   UNL     1      15.947  18.305  45.744  0.00  0.00    +0.000 A 
ENDROOT
BRANCH   5  17
ATOM     17  O   UNL     1      14.888  11.460  43.723  0.00  0.00    +0.000 OA
ATOM     18  H   UNL     1      15.609  11.874  43.180  0.00  0.00    +0.000 HD
ENDBRANCH   5  17
BRANCH   7  19
ATOM     19  O   UNL     1      18.038  15.390  45.134  0.00  0.00    +0.000 OA
ATOM     20  H   UNL     1      18.563  15.716  44.359  0.00  0.00    +0.000 HD
ENDBRANCH   7  19
BRANCH  14  21
ATOM     21  C   UNL     1      10.088  12.274  43.256  0.00  0.00    +0.000 C 
BRANCH  21  22
ATOM     22  O   UNL     1      10.147  10.980  42.655  0.00  0.00    +0.000 OA
ATOM     23  H   UNL     1       9.722  11.023  41.779  0.00  0.00    +0.000 HD
ENDBRANCH  21  22
ENDBRANCH  14  21
TORSDOF 4
ENDMDL
MODEL 13
REMARK VINA RESULT:    -5.865      1.224      5.715
REMARK INTER + INTRA:          -6.771
REMARK INTER:                  -6.722
REMARK INTRA:                  -0.049
REMARK UNBOUND:                -0.049
REMARK  Name = opt51.pdb
REMARK  4 active torsions:
REMARK  status: ('A' for Active; 'I' for Inactive)
REMARK    1  A    between atoms: C_5  and  O_9
REMARK    2  A    between atoms: C_7  and  O_13
REMARK    3  A    between atoms: C_16  and  C_19
REMARK    4  A    between atoms: C_19  and  O_20
REMARK                            x       y       z     vdW  Elec       q    Type
REMARK                         _______ _______ _______ _____ _____    ______ ____
ROOT
ATOM      1  O   UNL     1      15.117  12.664  44.779  0.00  0.00    +0.000 OA
ATOM      2  C   UNL     1      14.492  13.704  44.665  0.00  0.00    +0.000 C 
ATOM      3  C   UNL     1      13.065  13.687  44.180  0.00  0.00    +0.000 A 
ATOM      4  C   UNL     1      15.135  15.023  45.006  0.00  0.00    +0.000 A 
ATOM      5  C   UNL     1      12.421  12.476  43.860  0.00  0.00    +0.000 A 
ATOM      6  C   UNL     1      12.359  14.888  44.038  0.00  0.00    +0.000 A 
ATOM      7  C   UNL     1      16.467  15.086  45.460  0.00  0.00    +0.000 A 
ATOM      8  C   UNL     1      14.405  16.212  44.876  0.00  0.00    +0.000 A 
ATOM      9  C   UNL     1      11.106  12.475  43.401  0.00  0.00    +0.000 A 
ATOM     10  C   UNL     1      12.992  16.202  44.380  0.00  0.00    +0.000 C 
ATOM     11  C   UNL     1      11.041  14.870  43.569  0.00  0.00    +0.000 A 
ATOM     12  C   UNL     1      17.045  16.310  45.788  0.00  0.00    +0.000 A 
ATOM     13  C   UNL     1      15.000  17.435  45.208  0.00  0.00    +0.000 A 
ATOM     14  C   UNL     1      10.410  13.670  43.249  0.00  0.00    +0.000 A 
ATOM     15  O   UNL     1      12.370  17.240  44.260  0.00  0.00    +0.000 OA
ATOM     16  C   UNL     1      16.312  17.483  45.665  0.00  0.00    +0.000 A 
ENDROOT
BRANCH   5  17
ATOM     17  O   UNL     1      13.051  11.270  43.987  0.00  0.00    +0.000 OA
ATOM     18  H   UNL     1      13.063  11.026  44.949  0.00  0.00    +0.000 HD
ENDBRANCH   5  17
BRANCH   7  19
ATOM     19  O   UNL     1      17.237  13.965  45.592  0.00  0.00    +0.000 OA
ATOM     20  H   UNL     1      16.857  13.260  45.007  0.00  0.00    +0.000 HD
ENDBRANCH   7  19
BRANCH  14  21
ATOM     21  C   UNL     1       8.982  13.673  42.728  0.00  0.00    +0.000 C 
BRANCH  21  22
ATOM     22  O   UNL     1       8.693  12.443  42.063  0.00  0.00    +0.000 OA
ATOM     23  H   UNL     1       7.905  12.044  42.473  0.00  0.00    +0.000 HD
ENDBRANCH  21  22
ENDBRANCH  14  21
TORSDOF 4
ENDMDL
MODEL 14
REMARK VINA RESULT:    -5.736      1.039      1.137
REMARK INTER + INTRA:          -6.624
REMARK INTER:                  -6.575
REMARK INTRA:                  -0.049
REMARK UNBOUND:                -0.049
REMARK  Name = opt51.pdb
REMARK  4 active torsions:
REMARK  status: ('A' for Active; 'I' for Inactive)
REMARK    1  A    between atoms: C_5  and  O_9
REMARK    2  A    between atoms: C_7  and  O_13
REMARK    3  A    between atoms: C_16  and  C_19
REMARK    4  A    between atoms: C_19  and  O_20
REMARK                            x       y       z     vdW  Elec       q    Type
REMARK                         _______ _______ _______ _____ _____    ______ ____
ROOT
ATOM      1  O   UNL     1      12.971  11.846  43.485  0.00  0.00    +0.000 OA
ATOM      2  C   UNL     1      12.612  12.988  43.713  0.00  0.00    +0.000 C 
ATOM      3  C   UNL     1      13.612  14.032  44.139  0.00  0.00    +0.000 A 
ATOM      4  C   UNL     1      11.163  13.375  43.573  0.00  0.00    +0.000 A 
ATOM      5  C   UNL     1      14.978  13.717  44.272  0.00  0.00    +0.000 A 
ATOM      6  C   UNL     1      13.188  15.339  44.412  0.00  0.00    +0.000 A 
ATOM      7  C   UNL     1      10.194  12.432  43.180  0.00  0.00    +0.000 A 
ATOM      8  C   UNL     1      10.762  14.693  43.832  0.00  0.00    +0.000 A 
ATOM      9  C   UNL     1      15.891  14.688  44.678  0.00  0.00    +0.000 A 
ATOM     10  C   UNL     1      11.750  15.730  44.270  0.00  0.00    +0.000 C 
ATOM     11  C   UNL     1      14.117  16.300  44.826  0.00  0.00    +0.000 A 
ATOM     12  C   UNL     1       8.859  12.806  43.038  0.00  0.00    +0.000 A 
ATOM     13  C   UNL     1       9.417  15.054  43.686  0.00  0.00    +0.000 A 
ATOM     14  C   UNL     1      15.467  15.982  44.961  0.00  0.00    +0.000 A 
ATOM     15  O   UNL     1      11.391  16.868  44.503  0.00  0.00    +0.000 OA
ATOM     16  C   UNL     1       8.471  14.116  43.288  0.00  0.00    +0.000 A 
ENDROOT
BRANCH   5  17
ATOM     17  O   UNL     1      15.457  12.464  44.010  0.00  0.00    +0.000 OA
ATOM     18  H   UNL     1      15.131  11.852  44.720  0.00  0.00    +0.000 HD
ENDBRANCH   5  17
BRANCH   7  19
ATOM     19  O   UNL     1      10.517  11.128  42.930  0.00  0.00    +0.000 OA
ATOM     20  H   UNL     1      11.105  11.105  42.133  0.00  0.00    +0.000 HD
ENDBRANCH   7  19
BRANCH  14  21
ATOM     21  C   UNL     1      16.457  17.037  45.425  0.00  0.00    +0.000 C 
BRANCH  21  22
ATOM     22  O   UNL     1      17.695  16.429  45.796  0.00  0.00    +0.000 OA
ATOM     23  H   UNL     1      18.091  16.021  45.006  0.00  0.00    +0.000 HD
ENDBRANCH  21  22
ENDBRANCH  14  21
TORSDOF 4
ENDMDL
MODEL 15
REMARK VINA RESULT:    -5.636      1.966      3.387
REMARK INTER + INTRA:          -6.509
REMARK INTER:                  -6.461
REMARK INTRA:                  -0.049
REMARK UNBOUND:                -0.049
REMARK  Name = opt51.pdb
REMARK  4 active torsions:
REMARK  status: ('A' for Active; 'I' for Inactive)
REMARK    1  A    between atoms: C_5  and  O_9
REMARK    2  A    between atoms: C_7  and  O_13
REMARK    3  A    between atoms: C_16  and  C_19
REMARK    4  A    between atoms: C_19  and  O_20
REMARK                            x       y       z     vdW  Elec       q    Type
REMARK                         _______ _______ _______ _____ _____    ______ ____
ROOT
ATOM      1  O   UNL     1       8.862  13.613  42.466  0.00  0.00    +0.000 OA
ATOM      2  C   UNL     1       9.794  14.286  42.870  0.00  0.00    +0.000 C 
ATOM      3  C   UNL     1      11.109  13.639  43.218  0.00  0.00    +0.000 A 
ATOM      4  C   UNL     1       9.647  15.777  43.026  0.00  0.00    +0.000 A 
ATOM      5  C   UNL     1      11.295  12.250  43.077  0.00  0.00    +0.000 A 
ATOM      6  C   UNL     1      12.170  14.419  43.695  0.00  0.00    +0.000 A 
ATOM      7  C   UNL     1       8.435  16.424  42.715  0.00  0.00    +0.000 A 
ATOM      8  C   UNL     1      10.726  16.543  43.486  0.00  0.00    +0.000 A 
ATOM      9  C   UNL     1      12.512  11.662  43.415  0.00  0.00    +0.000 A 
ATOM     10  C   UNL     1      12.031  15.903  43.848  0.00  0.00    +0.000 C 
ATOM     11  C   UNL     1      13.384  13.811  44.036  0.00  0.00    +0.000 A 
ATOM     12  C   UNL     1       8.316  17.806  42.848  0.00  0.00    +0.000 A 
ATOM     13  C   UNL     1      10.592  17.931  43.616  0.00  0.00    +0.000 A 
ATOM     14  C   UNL     1      13.561  12.437  43.899  0.00  0.00    +0.000 A 
ATOM     15  O   UNL     1      12.959  16.574  44.256  0.00  0.00    +0.000 OA
ATOM     16  C   UNL     1       9.393  18.559  43.295  0.00  0.00    +0.000 A 
ENDROOT
BRANCH   5  17
ATOM     17  O   UNL     1      10.303  11.435  42.607  0.00  0.00    +0.000 OA
ATOM     18  H   UNL     1      10.727  10.655  42.164  0.00  0.00    +0.000 HD
ENDBRANCH   5  17
BRANCH   7  19
ATOM     19  O   UNL     1       7.340  15.733  42.279  0.00  0.00    +0.000 OA
ATOM     20  H   UNL     1       6.891  16.276  41.581  0.00  0.00    +0.000 HD
ENDBRANCH   7  19
BRANCH  14  21
ATOM     21  C   UNL     1      14.882  11.794  44.289  0.00  0.00    +0.000 C 
BRANCH  21  22
ATOM     22  O   UNL     1      14.702  10.401  44.544  0.00  0.00    +0.000 OA
ATOM     23  H   UNL     1      15.325  10.127  45.240  0.00  0.00    +0.000 HD
ENDBRANCH  21  22
ENDBRANCH  14  21
TORSDOF 4
ENDMDL
MODEL 16
REMARK VINA RESULT:    -5.608      1.677      2.355
REMARK INTER + INTRA:          -6.477
REMARK INTER:                  -6.433
REMARK INTRA:                  -0.044
REMARK UNBOUND:                -0.049
REMARK  Name = opt51.pdb
REMARK  4 active torsions:
REMARK  status: ('A' for Active; 'I' for Inactive)
REMARK    1  A    between atoms: C_5  and  O_9
REMARK    2  A    between atoms: C_7  and  O_13
REMARK    3  A    between atoms: C_16  and  C_19
REMARK    4  A    between atoms: C_19  and  O_20
REMARK                            x       y       z     vdW  Elec       q    Type
REMARK                         _______ _______ _______ _____ _____    ______ ____
ROOT
ATOM      1  O   UNL     1      14.158  12.446  44.221  0.00  0.00    +0.000 OA
ATOM      2  C   UNL     1      13.585  13.521  44.248  0.00  0.00    +0.000 C 
ATOM      3  C   UNL     1      14.325  14.770  44.652  0.00  0.00    +0.000 A 
ATOM      4  C   UNL     1      12.127  13.619  43.880  0.00  0.00    +0.000 A 
ATOM      5  C   UNL     1      15.690  14.728  44.993  0.00  0.00    +0.000 A 
ATOM      6  C   UNL     1      13.654  15.999  44.694  0.00  0.00    +0.000 A 
ATOM      7  C   UNL     1      11.396  12.477  43.500  0.00  0.00    +0.000 A 
ATOM      8  C   UNL     1      11.479  14.861  43.910  0.00  0.00    +0.000 A 
ATOM      9  C   UNL     1      16.360  15.888  45.377  0.00  0.00    +0.000 A 
ATOM     10  C   UNL     1      12.206  16.103  44.324  0.00  0.00    +0.000 C 
ATOM     11  C   UNL     1      14.340  17.154  45.088  0.00  0.00    +0.000 A 
ATOM     12  C   UNL     1      10.053  12.583  43.145  0.00  0.00    +0.000 A 
ATOM     13  C   UNL     1      10.129  14.951  43.552  0.00  0.00    +0.000 A 
ATOM     14  C   UNL     1      15.689  17.105  45.430  0.00  0.00    +0.000 A 
ATOM     15  O   UNL     1      11.633  17.175  44.358  0.00  0.00    +0.000 OA
ATOM     16  C   UNL     1       9.420  13.818  43.169  0.00  0.00    +0.000 A 
ENDROOT
BRANCH   5  17
ATOM     17  O   UNL     1      16.404  13.562  44.961  0.00  0.00    +0.000 OA
ATOM     18  H   UNL     1      17.367  13.790  44.883  0.00  0.00    +0.000 HD
ENDBRANCH   5  17
BRANCH   7  19
ATOM     19  O   UNL     1      11.965  11.234  43.467  0.00  0.00    +0.000 OA
ATOM     20  H   UNL     1      11.723  10.764  44.306  0.00  0.00    +0.000 HD
ENDBRANCH   7  19
BRANCH  14  21
ATOM     21  C   UNL     1      16.412  18.368  45.869  0.00  0.00    +0.000 C 
BRANCH  21  22
ATOM     22  O   UNL     1      16.177  18.620  47.254  0.00  0.00    +0.000 OA
ATOM     23  H   UNL     1      15.776  19.503  47.348  0.00  0.00    +0.000 HD
ENDBRANCH  21  22
ENDBRANCH  14  21
TORSDOF 4
ENDMDL
MODEL 17
REMARK VINA RESULT:    -5.512      1.790      4.092
REMARK INTER + INTRA:          -6.367
REMARK INTER:                  -6.316
REMARK INTRA:                  -0.050
REMARK UNBOUND:                -0.049
REMARK  Name = opt51.pdb
REMARK  4 active torsions:
REMARK  status: ('A' for Active; 'I' for Inactive)
REMARK    1  A    between atoms: C_5  and  O_9
REMARK    2  A    between atoms: C_7  and  O_13
REMARK    3  A    between atoms: C_16  and  C_19
REMARK    4  A    between atoms: C_19  and  O_20
REMARK                            x       y       z     vdW  Elec       q    Type
REMARK                         _______ _______ _______ _____ _____    ______ ____
ROOT
ATOM      1  O   UNL     1       9.803  16.718  43.700  0.00  0.00    +0.000 OA
ATOM      2  C   UNL     1       9.746  15.528  43.451  0.00  0.00    +0.000 C 
ATOM      3  C   UNL     1      10.930  14.634  43.716  0.00  0.00    +0.000 A 
ATOM      4  C   UNL     1       8.490  14.928  42.874  0.00  0.00    +0.000 A 
ATOM      5  C   UNL     1      12.120  15.149  44.264  0.00  0.00    +0.000 A 
ATOM      6  C   UNL     1      10.860  13.268  43.413  0.00  0.00    +0.000 A 
ATOM      7  C   UNL     1       7.360  15.725  42.608  0.00  0.00    +0.000 A 
ATOM      8  C   UNL     1       8.433  13.555  42.597  0.00  0.00    +0.000 A 
ATOM      9  C   UNL     1      13.213  14.316  44.493  0.00  0.00    +0.000 A 
ATOM     10  C   UNL     1       9.612  12.666  42.845  0.00  0.00    +0.000 C 
ATOM     11  C   UNL     1      11.969  12.446  43.643  0.00  0.00    +0.000 A 
ATOM     12  C   UNL     1       6.198  15.156  42.090  0.00  0.00    +0.000 A 
ATOM     13  C   UNL     1       7.259  12.998  42.076  0.00  0.00    +0.000 A 
ATOM     14  C   UNL     1      13.145  12.962  44.181  0.00  0.00    +0.000 A 
ATOM     15  O   UNL     1       9.557  11.478  42.591  0.00  0.00    +0.000 OA
ATOM     16  C   UNL     1       6.146  13.794  41.827  0.00  0.00    +0.000 A 
ENDROOT
BRANCH   5  17
ATOM     17  O   UNL     1      12.249  16.471  44.592  0.00  0.00    +0.000 OA
ATOM     18  H   UNL     1      12.404  16.534  45.570  0.00  0.00    +0.000 HD
ENDBRANCH   5  17
BRANCH   7  19
ATOM     19  O   UNL     1       7.357  17.072  42.840  0.00  0.00    +0.000 OA
ATOM     20  H   UNL     1       6.609  17.276  43.457  0.00  0.00    +0.000 HD
ENDBRANCH   7  19
BRANCH  14  21
ATOM     21  C   UNL     1      14.343  12.054  44.409  0.00  0.00    +0.000 C 
BRANCH  21  22
ATOM     22  O   UNL     1      13.913  10.711  44.636  0.00  0.00    +0.000 OA
ATOM     23  H   UNL     1      14.076  10.191  43.829  0.00  0.00    +0.000 HD
ENDBRANCH  21  22
ENDBRANCH  14  21
TORSDOF 4
ENDMDL
MODEL 18
REMARK VINA RESULT:    -5.459      2.014      6.766
REMARK INTER + INTRA:          -6.306
REMARK INTER:                  -6.266
REMARK INTRA:                  -0.041
REMARK UNBOUND:                -0.049
REMARK  Name = opt51.pdb
REMARK  4 active torsions:
REMARK  status: ('A' for Active; 'I' for Inactive)
REMARK    1  A    between atoms: C_5  and  O_9
REMARK    2  A    between atoms: C_7  and  O_13
REMARK    3  A    between atoms: C_16  and  C_19
REMARK    4  A    between atoms: C_19  and  O_20
REMARK                            x       y       z     vdW  Elec       q    Type
REMARK                         _______ _______ _______ _____ _____    ______ ____
ROOT
ATOM      1  O   UNL     1      10.098  16.939  43.627  0.00  0.00    +0.000 OA
ATOM      2  C   UNL     1      10.369  15.753  43.571  0.00  0.00    +0.000 C 
ATOM      3  C   UNL     1       9.355  14.761  43.063  0.00  0.00    +0.000 A 
ATOM      4  C   UNL     1      11.723  15.258  44.007  0.00  0.00    +0.000 A 
ATOM      5  C   UNL     1       8.081  15.179  42.634  0.00  0.00    +0.000 A 
ATOM      6  C   UNL     1       9.671  13.397  43.015  0.00  0.00    +0.000 A 
ATOM      7  C   UNL     1      12.701  16.149  44.491  0.00  0.00    +0.000 A 
ATOM      8  C   UNL     1      12.027  13.892  43.933  0.00  0.00    +0.000 A 
ATOM      9  C   UNL     1       7.147  14.251  42.178  0.00  0.00    +0.000 A 
ATOM     10  C   UNL     1      11.018  12.900  43.443  0.00  0.00    +0.000 C 
ATOM     11  C   UNL     1       8.720  12.476  42.561  0.00  0.00    +0.000 A 
ATOM     12  C   UNL     1      13.956  15.682  44.876  0.00  0.00    +0.000 A 
ATOM     13  C   UNL     1      13.292  13.437  44.325  0.00  0.00    +0.000 A 
ATOM     14  C   UNL     1       7.459  12.895  42.142  0.00  0.00    +0.000 A 
ATOM     15  O   UNL     1      11.287  11.716  43.393  0.00  0.00    +0.000 OA
ATOM     16  C   UNL     1      14.252  14.328  44.792  0.00  0.00    +0.000 A 
ENDROOT
BRANCH   5  17
ATOM     17  O   UNL     1       7.715  16.496  42.645  0.00  0.00    +0.000 OA
ATOM     18  H   UNL     1       6.728  16.545  42.545  0.00  0.00    +0.000 HD
ENDBRANCH   5  17
BRANCH   7  19
ATOM     19  O   UNL     1      12.461  17.490  44.605  0.00  0.00    +0.000 OA
ATOM     20  H   UNL     1      12.404  17.711  45.570  0.00  0.00    +0.000 HD
ENDBRANCH   7  19
BRANCH  14  21
ATOM     21  C   UNL     1       6.435  11.878  41.666  0.00  0.00    +0.000 C 
BRANCH  21  22
ATOM     22  O   UNL     1       6.533  11.698  40.253  0.00  0.00    +0.000 OA
ATOM     23  H   UNL     1       6.624  10.747  40.064  0.00  0.00    +0.000 HD
ENDBRANCH  21  22
ENDBRANCH  14  21
TORSDOF 4
ENDMDL
