MODEL 1
REMARK VINA RESULT:    -6.336      0.000      0.000
REMARK INTER + INTRA:          -7.558
REMARK INTER:                  -7.262
REMARK INTRA:                  -0.296
REMARK UNBOUND:                -0.296
REMARK  Name = opt75.pdb
REMARK  4 active torsions:
REMARK  status: ('A' for Active; 'I' for Inactive)
REMARK    1  A    between atoms: C_6  and  O_10
REMARK    2  A    between atoms: C_7  and  C_12
REMARK    3  A    between atoms: C_13  and  O_16
REMARK    4  A    between atoms: C_19  and  O_20
REMARK                            x       y       z     vdW  Elec       q    Type
REMARK                         _______ _______ _______ _____ _____    ______ ____
ROOT
ATOM      1  O   UNL     1      10.493  10.745  42.686  0.00  0.00    +0.000 OA
ATOM      2  C   UNL     1      10.589  11.904  43.047  0.00  0.00    +0.000 C 
ATOM      3  C   UNL     1       9.404  12.788  43.357  0.00  0.00    +0.000 A 
ATOM      4  C   UNL     1      11.958  12.521  43.208  0.00  0.00    +0.000 C 
ATOM      5  C   UNL     1       9.638  14.098  43.807  0.00  0.00    +0.000 A 
ATOM      6  C   UNL     1       8.081  12.343  43.221  0.00  0.00    +0.000 A 
ATOM      7  C   UNL     1      11.922  13.510  44.384  0.00  0.00    +0.000 C 
ATOM      8  O   UNL     1      10.932  14.524  44.073  0.00  0.00    +0.000 OA
ATOM      9  C   UNL     1       8.569  14.960  44.054  0.00  0.00    +0.000 A 
ATOM     10  C   UNL     1       7.019  13.205  43.477  0.00  0.00    +0.000 A 
ATOM     11  C   UNL     1       7.257  14.515  43.880  0.00  0.00    +0.000 A 
ENDROOT
BRANCH   7  12
ATOM     12  C   UNL     1      13.294  14.094  44.672  0.00  0.00    +0.000 A 
ATOM     13  C   UNL     1      13.595  15.440  44.445  0.00  0.00    +0.000 A 
ATOM     14  C   UNL     1      14.297  13.233  45.118  0.00  0.00    +0.000 A 
ATOM     15  C   UNL     1      14.891  15.913  44.659  0.00  0.00    +0.000 A 
ATOM     16  C   UNL     1      15.589  13.703  45.333  0.00  0.00    +0.000 A 
ATOM     17  C   UNL     1      15.889  15.041  45.098  0.00  0.00    +0.000 A 
BRANCH  17  18
ATOM     18  O   UNL     1      17.166  15.474  45.288  0.00  0.00    +0.000 OA
ATOM     19  H   UNL     1      17.522  15.115  46.117  0.00  0.00    +0.000 HD
ENDBRANCH  17  18
ENDBRANCH   7  12
BRANCH   6  20
ATOM     20  O   UNL     1       7.801  11.057  42.869  0.00  0.00    +0.000 OA
ATOM     21  H   UNL     1       8.180  10.922  41.974  0.00  0.00    +0.000 HD
ENDBRANCH   6  20
BRANCH  11  22
ATOM     22  O   UNL     1       6.195  15.334  44.130  0.00  0.00    +0.000 OA
ATOM     23  H   UNL     1       5.644  14.971  44.842  0.00  0.00    +0.000 HD
ENDBRANCH  11  22
TORSDOF 4
ENDMDL
MODEL 2
REMARK VINA RESULT:    -6.313      0.239      1.102
REMARK INTER + INTRA:          -7.532
REMARK INTER:                  -7.236
REMARK INTRA:                  -0.296
REMARK UNBOUND:                -0.296
REMARK  Name = opt75.pdb
REMARK  4 active torsions:
REMARK  status: ('A' for Active; 'I' for Inactive)
REMARK    1  A    between atoms: C_6  and  O_10
REMARK    2  A    between atoms: C_7  and  C_12
REMARK    3  A    between atoms: C_13  and  O_16
REMARK    4  A    between atoms: C_19  and  O_20
REMARK                            x       y       z     vdW  Elec       q    Type
REMARK                         _______ _______ _______ _____ _____    ______ ____
ROOT
ATOM      1  O   UNL     1      10.665  10.699  42.723  0.00  0.00    +0.000 OA
ATOM      2  C   UNL     1      10.751  11.861  43.076  0.00  0.00    +0.000 C 
ATOM      3  C   UNL     1       9.560  12.724  43.418  0.00  0.00    +0.000 A 
ATOM      4  C   UNL     1      12.112  12.503  43.195  0.00  0.00    +0.000 C 
ATOM      5  C   UNL     1       9.783  14.040  43.857  0.00  0.00    +0.000 A 
ATOM      6  C   UNL     1       8.241  12.254  43.323  0.00  0.00    +0.000 A 
ATOM      7  C   UNL     1      12.093  13.495  44.369  0.00  0.00    +0.000 C 
ATOM      8  O   UNL     1      11.076  14.490  44.083  0.00  0.00    +0.000 OA
ATOM      9  C   UNL     1       8.705  14.884  44.132  0.00  0.00    +0.000 A 
ATOM     10  C   UNL     1       7.171  13.099  43.607  0.00  0.00    +0.000 A 
ATOM     11  C   UNL     1       7.398  14.414  43.999  0.00  0.00    +0.000 A 
ENDROOT
BRANCH   7  12
ATOM     12  C   UNL     1      13.462  14.106  44.614  0.00  0.00    +0.000 A 
ATOM     13  C   UNL     1      14.521  13.371  45.152  0.00  0.00    +0.000 A 
ATOM     14  C   UNL     1      13.636  15.464  44.345  0.00  0.00    +0.000 A 
ATOM     15  C   UNL     1      15.740  13.996  45.424  0.00  0.00    +0.000 A 
ATOM     16  C   UNL     1      14.850  16.089  44.614  0.00  0.00    +0.000 A 
ATOM     17  C   UNL     1      15.901  15.356  45.159  0.00  0.00    +0.000 A 
BRANCH  17  18
ATOM     18  O   UNL     1      17.071  15.993  45.441  0.00  0.00    +0.000 OA
ATOM     19  H   UNL     1      17.615  15.449  46.033  0.00  0.00    +0.000 HD
ENDBRANCH  17  18
ENDBRANCH   7  12
BRANCH   6  20
ATOM     20  O   UNL     1       7.975  10.963  42.984  0.00  0.00    +0.000 OA
ATOM     21  H   UNL     1       7.898  10.461  43.824  0.00  0.00    +0.000 HD
ENDBRANCH   6  20
BRANCH  11  22
ATOM     22  O   UNL     1       6.329  15.215  44.277  0.00  0.00    +0.000 OA
ATOM     23  H   UNL     1       5.504  14.798  43.980  0.00  0.00    +0.000 HD
ENDBRANCH  11  22
TORSDOF 4
ENDMDL
MODEL 3
REMARK VINA RESULT:    -6.201      1.648      7.027
REMARK INTER + INTRA:          -7.403
REMARK INTER:                  -7.128
REMARK INTRA:                  -0.275
REMARK UNBOUND:                -0.296
REMARK  Name = opt75.pdb
REMARK  4 active torsions:
REMARK  status: ('A' for Active; 'I' for Inactive)
REMARK    1  A    between atoms: C_6  and  O_10
REMARK    2  A    between atoms: C_7  and  C_12
REMARK    3  A    between atoms: C_13  and  O_16
REMARK    4  A    between atoms: C_19  and  O_20
REMARK                            x       y       z     vdW  Elec       q    Type
REMARK                         _______ _______ _______ _____ _____    ______ ____
ROOT
ATOM      1  O   UNL     1      13.307  16.482  41.818  0.00  0.00    +0.000 OA
ATOM      2  C   UNL     1      13.085  15.525  42.536  0.00  0.00    +0.000 C 
ATOM      3  C   UNL     1      14.050  15.016  43.580  0.00  0.00    +0.000 A 
ATOM      4  C   UNL     1      11.774  14.785  42.403  0.00  0.00    +0.000 C 
ATOM      5  C   UNL     1      13.666  13.928  44.382  0.00  0.00    +0.000 A 
ATOM      6  C   UNL     1      15.309  15.599  43.784  0.00  0.00    +0.000 A 
ATOM      7  C   UNL     1      11.339  14.292  43.792  0.00  0.00    +0.000 C 
ATOM      8  O   UNL     1      12.380  13.413  44.291  0.00  0.00    +0.000 OA
ATOM      9  C   UNL     1      14.552  13.397  45.321  0.00  0.00    +0.000 A 
ATOM     10  C   UNL     1      16.185  15.070  44.729  0.00  0.00    +0.000 A 
ATOM     11  C   UNL     1      15.816  13.965  45.489  0.00  0.00    +0.000 A 
ENDROOT
BRANCH   7  12
ATOM     12  C   UNL     1       9.975  13.626  43.752  0.00  0.00    +0.000 A 
ATOM     13  C   UNL     1       8.905  14.068  44.536  0.00  0.00    +0.000 A 
ATOM     14  C   UNL     1       9.816  12.497  42.947  0.00  0.00    +0.000 A 
ATOM     15  C   UNL     1       7.692  13.378  44.515  0.00  0.00    +0.000 A 
ATOM     16  C   UNL     1       8.606  11.809  42.925  0.00  0.00    +0.000 A 
ATOM     17  C   UNL     1       7.545  12.246  43.713  0.00  0.00    +0.000 A 
BRANCH  17  18
ATOM     18  O   UNL     1       6.380  11.542  43.697  0.00  0.00    +0.000 OA
ATOM     19  H   UNL     1       6.170  11.219  44.589  0.00  0.00    +0.000 HD
ENDBRANCH  17  18
ENDBRANCH   7  12
BRANCH   6  20
ATOM     20  O   UNL     1      15.695  16.706  43.093  0.00  0.00    +0.000 OA
ATOM     21  H   UNL     1      14.923  17.312  43.078  0.00  0.00    +0.000 HD
ENDBRANCH   6  20
BRANCH  11  22
ATOM     22  O   UNL     1      16.693  13.474  46.412  0.00  0.00    +0.000 OA
ATOM     23  H   UNL     1      17.068  12.631  46.111  0.00  0.00    +0.000 HD
ENDBRANCH  11  22
TORSDOF 4
ENDMDL
MODEL 4
REMARK VINA RESULT:    -5.919      2.746      4.840
REMARK INTER + INTRA:          -7.080
REMARK INTER:                  -6.786
REMARK INTRA:                  -0.295
REMARK UNBOUND:                -0.296
REMARK  Name = opt75.pdb
REMARK  4 active torsions:
REMARK  status: ('A' for Active; 'I' for Inactive)
REMARK    1  A    between atoms: C_6  and  O_10
REMARK    2  A    between atoms: C_7  and  C_12
REMARK    3  A    between atoms: C_13  and  O_16
REMARK    4  A    between atoms: C_19  and  O_20
REMARK                            x       y       z     vdW  Elec       q    Type
REMARK                         _______ _______ _______ _____ _____    ______ ____
ROOT
ATOM      1  O   UNL     1      10.030  14.333  42.756  0.00  0.00    +0.000 OA
ATOM      2  C   UNL     1      11.055  14.473  43.398  0.00  0.00    +0.000 C 
ATOM      3  C   UNL     1      12.026  13.352  43.684  0.00  0.00    +0.000 A 
ATOM      4  C   UNL     1      11.407  15.835  43.948  0.00  0.00    +0.000 C 
ATOM      5  C   UNL     1      13.200  13.642  44.399  0.00  0.00    +0.000 A 
ATOM      6  C   UNL     1      11.802  12.037  43.251  0.00  0.00    +0.000 A 
ATOM      7  C   UNL     1      12.934  16.005  43.913  0.00  0.00    +0.000 C 
ATOM      8  O   UNL     1      13.511  14.954  44.729  0.00  0.00    +0.000 OA
ATOM      9  C   UNL     1      14.096  12.622  44.727  0.00  0.00    +0.000 A 
ATOM     10  C   UNL     1      12.703  11.026  43.575  0.00  0.00    +0.000 A 
ATOM     11  C   UNL     1      13.842  11.311  44.321  0.00  0.00    +0.000 A 
ENDROOT
BRANCH   7  12
ATOM     12  C   UNL     1      13.356  17.395  44.357  0.00  0.00    +0.000 A 
ATOM     13  C   UNL     1      12.440  18.437  44.522  0.00  0.00    +0.000 A 
ATOM     14  C   UNL     1      14.717  17.642  44.543  0.00  0.00    +0.000 A 
ATOM     15  C   UNL     1      12.887  19.714  44.863  0.00  0.00    +0.000 A 
ATOM     16  C   UNL     1      15.165  18.915  44.885  0.00  0.00    +0.000 A 
ATOM     17  C   UNL     1      14.251  19.953  45.040  0.00  0.00    +0.000 A 
BRANCH  17  18
ATOM     18  O   UNL     1      14.712  21.197  45.347  0.00  0.00    +0.000 OA
ATOM     19  H   UNL     1      15.076  21.207  46.248  0.00  0.00    +0.000 HD
ENDBRANCH  17  18
ENDBRANCH   7  12
BRANCH   6  20
ATOM     20  O   UNL     1      10.722  11.721  42.484  0.00  0.00    +0.000 OA
ATOM     21  H   UNL     1      10.438  12.550  42.042  0.00  0.00    +0.000 HD
ENDBRANCH   6  20
BRANCH  11  22
ATOM     22  O   UNL     1      14.710  10.301  44.616  0.00  0.00    +0.000 OA
ATOM     23  H   UNL     1      14.234   9.541  44.988  0.00  0.00    +0.000 HD
ENDBRANCH  11  22
TORSDOF 4
ENDMDL
MODEL 5
REMARK VINA RESULT:    -5.847      3.134      8.262
REMARK INTER + INTRA:          -6.998
REMARK INTER:                  -6.708
REMARK INTRA:                  -0.290
REMARK UNBOUND:                -0.296
REMARK  Name = opt75.pdb
REMARK  4 active torsions:
REMARK  status: ('A' for Active; 'I' for Inactive)
REMARK    1  A    between atoms: C_6  and  O_10
REMARK    2  A    between atoms: C_7  and  C_12
REMARK    3  A    between atoms: C_13  and  O_16
REMARK    4  A    between atoms: C_19  and  O_20
REMARK                            x       y       z     vdW  Elec       q    Type
REMARK                         _______ _______ _______ _____ _____    ______ ____
ROOT
ATOM      1  O   UNL     1      17.836  14.531  45.579  0.00  0.00    +0.000 OA
ATOM      2  C   UNL     1      17.185  14.453  44.554  0.00  0.00    +0.000 C 
ATOM      3  C   UNL     1      17.794  14.435  43.172  0.00  0.00    +0.000 A 
ATOM      4  C   UNL     1      15.679  14.361  44.635  0.00  0.00    +0.000 C 
ATOM      5  C   UNL     1      16.944  14.297  42.061  0.00  0.00    +0.000 A 
ATOM      6  C   UNL     1      19.176  14.540  42.960  0.00  0.00    +0.000 A 
ATOM      7  C   UNL     1      15.175  13.459  43.497  0.00  0.00    +0.000 C 
ATOM      8  O   UNL     1      15.589  14.062  42.244  0.00  0.00    +0.000 OA
ATOM      9  C   UNL     1      17.466  14.328  40.767  0.00  0.00    +0.000 A 
ATOM     10  C   UNL     1      19.691  14.562  41.667  0.00  0.00    +0.000 A 
ATOM     11  C   UNL     1      18.840  14.469  40.570  0.00  0.00    +0.000 A 
ENDROOT
BRANCH   7  12
ATOM     12  C   UNL     1      13.674  13.237  43.577  0.00  0.00    +0.000 A 
ATOM     13  C   UNL     1      13.002  12.362  42.719  0.00  0.00    +0.000 A 
ATOM     14  C   UNL     1      12.946  13.985  44.503  0.00  0.00    +0.000 A 
ATOM     15  C   UNL     1      11.613  12.246  42.787  0.00  0.00    +0.000 A 
ATOM     16  C   UNL     1      11.561  13.870  44.573  0.00  0.00    +0.000 A 
ATOM     17  C   UNL     1      10.893  13.005  43.711  0.00  0.00    +0.000 A 
BRANCH  17  18
ATOM     18  O   UNL     1       9.535  12.928  43.777  0.00  0.00    +0.000 OA
ATOM     19  H   UNL     1       9.143  13.172  42.922  0.00  0.00    +0.000 HD
ENDBRANCH  17  18
ENDBRANCH   7  12
BRANCH   6  20
ATOM     20  O   UNL     1      20.048  14.591  44.005  0.00  0.00    +0.000 OA
ATOM     21  H   UNL     1      20.797  15.157  43.719  0.00  0.00    +0.000 HD
ENDBRANCH   6  20
BRANCH  11  22
ATOM     22  O   UNL     1      19.375  14.487  39.315  0.00  0.00    +0.000 OA
ATOM     23  H   UNL     1      18.858  13.924  38.716  0.00  0.00    +0.000 HD
ENDBRANCH  11  22
TORSDOF 4
ENDMDL
MODEL 6
REMARK VINA RESULT:    -5.843      1.998      7.767
REMARK INTER + INTRA:          -6.993
REMARK INTER:                  -6.692
REMARK INTRA:                  -0.302
REMARK UNBOUND:                -0.296
REMARK  Name = opt75.pdb
REMARK  4 active torsions:
REMARK  status: ('A' for Active; 'I' for Inactive)
REMARK    1  A    between atoms: C_6  and  O_10
REMARK    2  A    between atoms: C_7  and  C_12
REMARK    3  A    between atoms: C_13  and  O_16
REMARK    4  A    between atoms: C_19  and  O_20
REMARK                            x       y       z     vdW  Elec       q    Type
REMARK                         _______ _______ _______ _____ _____    ______ ____
ROOT
ATOM      1  O   UNL     1      14.175  17.995  45.137  0.00  0.00    +0.000 OA
ATOM      2  C   UNL     1      14.356  16.859  44.739  0.00  0.00    +0.000 C 
ATOM      3  C   UNL     1      15.695  16.161  44.771  0.00  0.00    +0.000 A 
ATOM      4  C   UNL     1      13.193  16.072  44.182  0.00  0.00    +0.000 C 
ATOM      5  C   UNL     1      15.775  14.831  44.325  0.00  0.00    +0.000 A 
ATOM      6  C   UNL     1      16.857  16.791  45.240  0.00  0.00    +0.000 A 
ATOM      7  C   UNL     1      13.369  14.592  44.555  0.00  0.00    +0.000 C 
ATOM      8  O   UNL     1      14.621  14.141  43.977  0.00  0.00    +0.000 OA
ATOM      9  C   UNL     1      17.004  14.171  44.291  0.00  0.00    +0.000 A 
ATOM     10  C   UNL     1      18.079  16.124  45.210  0.00  0.00    +0.000 A 
ATOM     11  C   UNL     1      18.159  14.822  44.727  0.00  0.00    +0.000 A 
ENDROOT
BRANCH   7  12
ATOM     12  C   UNL     1      12.181  13.754  44.115  0.00  0.00    +0.000 A 
ATOM     13  C   UNL     1      12.310  12.687  43.222  0.00  0.00    +0.000 A 
ATOM     14  C   UNL     1      10.914  14.113  44.578  0.00  0.00    +0.000 A 
ATOM     15  C   UNL     1      11.178  11.992  42.794  0.00  0.00    +0.000 A 
ATOM     16  C   UNL     1       9.784  13.420  44.153  0.00  0.00    +0.000 A 
ATOM     17  C   UNL     1       9.914  12.364  43.257  0.00  0.00    +0.000 A 
BRANCH  17  18
ATOM     18  O   UNL     1       8.793  11.718  42.832  0.00  0.00    +0.000 OA
ATOM     19  H   UNL     1       8.987  11.197  42.036  0.00  0.00    +0.000 HD
ENDBRANCH  17  18
ENDBRANCH   7  12
BRANCH   6  20
ATOM     20  O   UNL     1      16.818  18.048  45.760  0.00  0.00    +0.000 OA
ATOM     21  H   UNL     1      17.485  18.076  46.480  0.00  0.00    +0.000 HD
ENDBRANCH   6  20
BRANCH  11  22
ATOM     22  O   UNL     1      19.370  14.193  44.718  0.00  0.00    +0.000 OA
ATOM     23  H   UNL     1      19.616  13.939  43.813  0.00  0.00    +0.000 HD
ENDBRANCH  11  22
TORSDOF 4
ENDMDL
MODEL 7
REMARK VINA RESULT:    -5.829      1.880      6.930
REMARK INTER + INTRA:          -6.977
REMARK INTER:                  -6.673
REMARK INTRA:                  -0.304
REMARK UNBOUND:                -0.296
REMARK  Name = opt75.pdb
REMARK  4 active torsions:
REMARK  status: ('A' for Active; 'I' for Inactive)
REMARK    1  A    between atoms: C_6  and  O_10
REMARK    2  A    between atoms: C_7  and  C_12
REMARK    3  A    between atoms: C_13  and  O_16
REMARK    4  A    between atoms: C_19  and  O_20
REMARK                            x       y       z     vdW  Elec       q    Type
REMARK                         _______ _______ _______ _____ _____    ______ ____
ROOT
ATOM      1  O   UNL     1      14.046  16.876  43.899  0.00  0.00    +0.000 OA
ATOM      2  C   UNL     1      13.327  15.903  43.760  0.00  0.00    +0.000 C 
ATOM      3  C   UNL     1      13.779  14.483  44.006  0.00  0.00    +0.000 A 
ATOM      4  C   UNL     1      11.894  16.095  43.322  0.00  0.00    +0.000 C 
ATOM      5  C   UNL     1      12.848  13.442  43.855  0.00  0.00    +0.000 A 
ATOM      6  C   UNL     1      15.091  14.170  44.391  0.00  0.00    +0.000 A 
ATOM      7  C   UNL     1      11.019  15.033  44.006  0.00  0.00    +0.000 C 
ATOM      8  O   UNL     1      11.514  13.730  43.600  0.00  0.00    +0.000 OA
ATOM      9  C   UNL     1      13.242  12.114  44.023  0.00  0.00    +0.000 A 
ATOM     10  C   UNL     1      15.475  12.844  44.566  0.00  0.00    +0.000 A 
ATOM     11  C   UNL     1      14.560  11.814  44.371  0.00  0.00    +0.000 A 
ENDROOT
BRANCH   7  12
ATOM     12  C   UNL     1       9.546  15.228  43.691  0.00  0.00    +0.000 A 
ATOM     13  C   UNL     1       8.940  16.487  43.706  0.00  0.00    +0.000 A 
ATOM     14  C   UNL     1       8.770  14.095  43.442  0.00  0.00    +0.000 A 
ATOM     15  C   UNL     1       7.568  16.605  43.479  0.00  0.00    +0.000 A 
ATOM     16  C   UNL     1       7.402  14.211  43.214  0.00  0.00    +0.000 A 
ATOM     17  C   UNL     1       6.799  15.466  43.238  0.00  0.00    +0.000 A 
BRANCH  17  18
ATOM     18  O   UNL     1       5.454  15.554  43.041  0.00  0.00    +0.000 OA
ATOM     19  H   UNL     1       5.248  15.476  42.095  0.00  0.00    +0.000 HD
ENDBRANCH  17  18
ENDBRANCH   7  12
BRANCH   6  20
ATOM     20  O   UNL     1      16.008  15.148  44.633  0.00  0.00    +0.000 OA
ATOM     21  H   UNL     1      15.904  15.814  43.920  0.00  0.00    +0.000 HD
ENDBRANCH   6  20
BRANCH  11  22
ATOM     22  O   UNL     1      14.965  10.525  44.557  0.00  0.00    +0.000 OA
ATOM     23  H   UNL     1      15.429  10.432  45.405  0.00  0.00    +0.000 HD
ENDBRANCH  11  22
TORSDOF 4
ENDMDL
MODEL 8
REMARK VINA RESULT:    -5.752      0.930      1.482
REMARK INTER + INTRA:          -6.889
REMARK INTER:                  -6.585
REMARK INTRA:                  -0.304
REMARK UNBOUND:                -0.296
REMARK  Name = opt75.pdb
REMARK  4 active torsions:
REMARK  status: ('A' for Active; 'I' for Inactive)
REMARK    1  A    between atoms: C_6  and  O_10
REMARK    2  A    between atoms: C_7  and  C_12
REMARK    3  A    between atoms: C_13  and  O_16
REMARK    4  A    between atoms: C_19  and  O_20
REMARK                            x       y       z     vdW  Elec       q    Type
REMARK                         _______ _______ _______ _____ _____    ______ ____
ROOT
ATOM      1  O   UNL     1      10.318  11.181  42.633  0.00  0.00    +0.000 OA
ATOM      2  C   UNL     1      10.258  12.355  42.949  0.00  0.00    +0.000 C 
ATOM      3  C   UNL     1       8.968  13.076  43.259  0.00  0.00    +0.000 A 
ATOM      4  C   UNL     1      11.530  13.164  43.050  0.00  0.00    +0.000 C 
ATOM      5  C   UNL     1       9.025  14.423  43.656  0.00  0.00    +0.000 A 
ATOM      6  C   UNL     1       7.718  12.445  43.177  0.00  0.00    +0.000 A 
ATOM      7  C   UNL     1      11.381  14.183  44.190  0.00  0.00    +0.000 C 
ATOM      8  O   UNL     1      10.252  15.036  43.870  0.00  0.00    +0.000 OA
ATOM      9  C   UNL     1       7.851  15.136  43.901  0.00  0.00    +0.000 A 
ATOM     10  C   UNL     1       6.551  13.160  43.431  0.00  0.00    +0.000 A 
ATOM     11  C   UNL     1       6.611  14.506  43.780  0.00  0.00    +0.000 A 
ENDROOT
BRANCH   7  12
ATOM     12  C   UNL     1      12.664  14.965  44.418  0.00  0.00    +0.000 A 
ATOM     13  C   UNL     1      13.918  14.349  44.449  0.00  0.00    +0.000 A 
ATOM     14  C   UNL     1      12.565  16.335  44.665  0.00  0.00    +0.000 A 
ATOM     15  C   UNL     1      15.059  15.101  44.732  0.00  0.00    +0.000 A 
ATOM     16  C   UNL     1      13.703  17.086  44.946  0.00  0.00    +0.000 A 
ATOM     17  C   UNL     1      14.949  16.469  44.985  0.00  0.00    +0.000 A 
BRANCH  17  18
ATOM     18  O   UNL     1      16.045  17.217  45.290  0.00  0.00    +0.000 OA
ATOM     19  H   UNL     1      16.172  17.914  44.624  0.00  0.00    +0.000 HD
ENDBRANCH  17  18
ENDBRANCH   7  12
BRANCH   6  20
ATOM     20  O   UNL     1       7.614  11.120  42.880  0.00  0.00    +0.000 OA
ATOM     21  H   UNL     1       7.099  11.058  42.046  0.00  0.00    +0.000 HD
ENDBRANCH   6  20
BRANCH  11  22
ATOM     22  O   UNL     1       5.450  15.177  44.029  0.00  0.00    +0.000 OA
ATOM     23  H   UNL     1       5.595  16.136  43.987  0.00  0.00    +0.000 HD
ENDBRANCH  11  22
TORSDOF 4
ENDMDL
MODEL 9
REMARK VINA RESULT:    -5.721      1.931      2.993
REMARK INTER + INTRA:          -6.854
REMARK INTER:                  -6.568
REMARK INTRA:                  -0.286
REMARK UNBOUND:                -0.296
REMARK  Name = opt75.pdb
REMARK  4 active torsions:
REMARK  status: ('A' for Active; 'I' for Inactive)
REMARK    1  A    between atoms: C_6  and  O_10
REMARK    2  A    between atoms: C_7  and  C_12
REMARK    3  A    between atoms: C_13  and  O_16
REMARK    4  A    between atoms: C_19  and  O_20
REMARK                            x       y       z     vdW  Elec       q    Type
REMARK                         _______ _______ _______ _____ _____    ______ ____
ROOT
ATOM      1  O   UNL     1       8.918  15.476  40.846  0.00  0.00    +0.000 OA
ATOM      2  C   UNL     1       9.140  14.693  41.752  0.00  0.00    +0.000 C 
ATOM      3  C   UNL     1       8.160  13.638  42.208  0.00  0.00    +0.000 A 
ATOM      4  C   UNL     1      10.463  14.752  42.477  0.00  0.00    +0.000 C 
ATOM      5  C   UNL     1       8.543  12.761  43.236  0.00  0.00    +0.000 A 
ATOM      6  C   UNL     1       6.888  13.498  41.634  0.00  0.00    +0.000 A 
ATOM      7  C   UNL     1      10.876  13.325  42.872  0.00  0.00    +0.000 C 
ATOM      8  O   UNL     1       9.838  12.792  43.734  0.00  0.00    +0.000 OA
ATOM      9  C   UNL     1       7.646  11.807  43.719  0.00  0.00    +0.000 A 
ATOM     10  C   UNL     1       6.001  12.539  42.115  0.00  0.00    +0.000 A 
ATOM     11  C   UNL     1       6.370  11.702  43.163  0.00  0.00    +0.000 A 
ENDROOT
BRANCH   7  12
ATOM     12  C   UNL     1      12.251  13.294  43.517  0.00  0.00    +0.000 A 
ATOM     13  C   UNL     1      12.952  12.104  43.724  0.00  0.00    +0.000 A 
ATOM     14  C   UNL     1      12.794  14.498  43.970  0.00  0.00    +0.000 A 
ATOM     15  C   UNL     1      14.182  12.122  44.385  0.00  0.00    +0.000 A 
ATOM     16  C   UNL     1      14.020  14.518  44.627  0.00  0.00    +0.000 A 
ATOM     17  C   UNL     1      14.712  13.329  44.840  0.00  0.00    +0.000 A 
BRANCH  17  18
ATOM     18  O   UNL     1      15.897  13.368  45.511  0.00  0.00    +0.000 OA
ATOM     19  H   UNL     1      16.019  14.238  45.925  0.00  0.00    +0.000 HD
ENDBRANCH  17  18
ENDBRANCH   7  12
BRANCH   6  20
ATOM     20  O   UNL     1       6.501  14.267  40.579  0.00  0.00    +0.000 OA
ATOM     21  H   UNL     1       6.024  13.675  39.959  0.00  0.00    +0.000 HD
ENDBRANCH   6  20
BRANCH  11  22
ATOM     22  O   UNL     1       5.481  10.767  43.608  0.00  0.00    +0.000 OA
ATOM     23  H   UNL     1       5.388  10.050  42.960  0.00  0.00    +0.000 HD
ENDBRANCH  11  22
TORSDOF 4
ENDMDL
MODEL 10
REMARK VINA RESULT:    -5.671      1.290      2.931
REMARK INTER + INTRA:          -6.797
REMARK INTER:                  -6.492
REMARK INTRA:                  -0.304
REMARK UNBOUND:                -0.296
REMARK  Name = opt75.pdb
REMARK  4 active torsions:
REMARK  status: ('A' for Active; 'I' for Inactive)
REMARK    1  A    between atoms: C_6  and  O_10
REMARK    2  A    between atoms: C_7  and  C_12
REMARK    3  A    between atoms: C_13  and  O_16
REMARK    4  A    between atoms: C_19  and  O_20
REMARK                            x       y       z     vdW  Elec       q    Type
REMARK                         _______ _______ _______ _____ _____    ______ ____
ROOT
ATOM      1  O   UNL     1       9.674  17.243  43.475  0.00  0.00    +0.000 OA
ATOM      2  C   UNL     1      10.113  16.139  43.742  0.00  0.00    +0.000 C 
ATOM      3  C   UNL     1       9.362  14.853  43.492  0.00  0.00    +0.000 A 
ATOM      4  C   UNL     1      11.489  16.015  44.354  0.00  0.00    +0.000 C 
ATOM      5  C   UNL     1       9.988  13.634  43.801  0.00  0.00    +0.000 A 
ATOM      6  C   UNL     1       8.067  14.834  42.953  0.00  0.00    +0.000 A 
ATOM      7  C   UNL     1      12.152  14.733  43.827  0.00  0.00    +0.000 C 
ATOM      8  O   UNL     1      11.313  13.615  44.214  0.00  0.00    +0.000 OA
ATOM      9  C   UNL     1       9.305  12.428  43.632  0.00  0.00    +0.000 A 
ATOM     10  C   UNL     1       7.394  13.628  42.780  0.00  0.00    +0.000 A 
ATOM     11  C   UNL     1       8.003  12.427  43.128  0.00  0.00    +0.000 A 
ENDROOT
BRANCH   7  12
ATOM     12  C   UNL     1      13.582  14.595  44.322  0.00  0.00    +0.000 A 
ATOM     13  C   UNL     1      14.033  13.455  44.992  0.00  0.00    +0.000 A 
ATOM     14  C   UNL     1      14.447  15.677  44.149  0.00  0.00    +0.000 A 
ATOM     15  C   UNL     1      15.337  13.405  45.488  0.00  0.00    +0.000 A 
ATOM     16  C   UNL     1      15.747  15.629  44.642  0.00  0.00    +0.000 A 
ATOM     17  C   UNL     1      16.192  14.496  45.317  0.00  0.00    +0.000 A 
BRANCH  17  18
ATOM     18  O   UNL     1      17.458  14.481  45.816  0.00  0.00    +0.000 OA
ATOM     19  H   UNL     1      17.696  15.360  46.155  0.00  0.00    +0.000 HD
ENDBRANCH  17  18
ENDBRANCH   7  12
BRANCH   6  20
ATOM     20  O   UNL     1       7.449  15.982  42.559  0.00  0.00    +0.000 OA
ATOM     21  H   UNL     1       6.886  16.270  43.309  0.00  0.00    +0.000 HD
ENDBRANCH   6  20
BRANCH  11  22
ATOM     22  O   UNL     1       7.321  11.260  42.940  0.00  0.00    +0.000 OA
ATOM     23  H   UNL     1       6.731  11.330  42.173  0.00  0.00    +0.000 HD
ENDBRANCH  11  22
TORSDOF 4
ENDMDL
MODEL 11
REMARK VINA RESULT:    -5.641      1.849      2.417
REMARK INTER + INTRA:          -6.762
REMARK INTER:                  -6.486
REMARK INTRA:                  -0.276
REMARK UNBOUND:                -0.296
REMARK  Name = opt75.pdb
REMARK  4 active torsions:
REMARK  status: ('A' for Active; 'I' for Inactive)
REMARK    1  A    between atoms: C_6  and  O_10
REMARK    2  A    between atoms: C_7  and  C_12
REMARK    3  A    between atoms: C_13  and  O_16
REMARK    4  A    between atoms: C_19  and  O_20
REMARK                            x       y       z     vdW  Elec       q    Type
REMARK                         _______ _______ _______ _____ _____    ______ ____
ROOT
ATOM      1  O   UNL     1      11.497  11.222  43.281  0.00  0.00    +0.000 OA
ATOM      2  C   UNL     1      11.960  12.347  43.330  0.00  0.00    +0.000 C 
ATOM      3  C   UNL     1      11.120  13.594  43.478  0.00  0.00    +0.000 A 
ATOM      4  C   UNL     1      13.455  12.540  43.247  0.00  0.00    +0.000 C 
ATOM      5  C   UNL     1      11.768  14.837  43.568  0.00  0.00    +0.000 A 
ATOM      6  C   UNL     1       9.720  13.551  43.541  0.00  0.00    +0.000 A 
ATOM      7  C   UNL     1      13.853  13.730  44.134  0.00  0.00    +0.000 C 
ATOM      8  O   UNL     1      13.153  14.900  43.638  0.00  0.00    +0.000 OA
ATOM      9  C   UNL     1      11.024  16.015  43.653  0.00  0.00    +0.000 A 
ATOM     10  C   UNL     1       8.984  14.729  43.634  0.00  0.00    +0.000 A 
ATOM     11  C   UNL     1       9.629  15.961  43.678  0.00  0.00    +0.000 A 
ENDROOT
BRANCH   7  12
ATOM     12  C   UNL     1      15.359  13.920  44.181  0.00  0.00    +0.000 A 
ATOM     13  C   UNL     1      16.046  14.148  45.376  0.00  0.00    +0.000 A 
ATOM     14  C   UNL     1      16.060  13.928  42.974  0.00  0.00    +0.000 A 
ATOM     15  C   UNL     1      17.422  14.387  45.357  0.00  0.00    +0.000 A 
ATOM     16  C   UNL     1      17.431  14.165  42.954  0.00  0.00    +0.000 A 
ATOM     17  C   UNL     1      18.112  14.400  44.144  0.00  0.00    +0.000 A 
BRANCH  17  18
ATOM     18  O   UNL     1      19.448  14.657  44.099  0.00  0.00    +0.000 OA
ATOM     19  H   UNL     1      19.715  15.184  44.870  0.00  0.00    +0.000 HD
ENDBRANCH  17  18
ENDBRANCH   7  12
BRANCH   6  20
ATOM     20  O   UNL     1       9.048  12.367  43.543  0.00  0.00    +0.000 OA
ATOM     21  H   UNL     1       9.686  11.681  43.250  0.00  0.00    +0.000 HD
ENDBRANCH   6  20
BRANCH  11  22
ATOM     22  O   UNL     1       8.880  17.097  43.777  0.00  0.00    +0.000 OA
ATOM     23  H   UNL     1       9.373  17.791  44.244  0.00  0.00    +0.000 HD
ENDBRANCH  11  22
TORSDOF 4
ENDMDL
MODEL 12
REMARK VINA RESULT:    -5.638      2.721      6.817
REMARK INTER + INTRA:          -6.759
REMARK INTER:                  -6.453
REMARK INTRA:                  -0.306
REMARK UNBOUND:                -0.296
REMARK  Name = opt75.pdb
REMARK  4 active torsions:
REMARK  status: ('A' for Active; 'I' for Inactive)
REMARK    1  A    between atoms: C_6  and  O_10
REMARK    2  A    between atoms: C_7  and  C_12
REMARK    3  A    between atoms: C_13  and  O_16
REMARK    4  A    between atoms: C_19  and  O_20
REMARK                            x       y       z     vdW  Elec       q    Type
REMARK                         _______ _______ _______ _____ _____    ______ ____
ROOT
ATOM      1  O   UNL     1      12.723  12.377  44.539  0.00  0.00    +0.000 OA
ATOM      2  C   UNL     1      12.920  13.577  44.601  0.00  0.00    +0.000 C 
ATOM      3  C   UNL     1      14.291  14.195  44.736  0.00  0.00    +0.000 A 
ATOM      4  C   UNL     1      11.749  14.528  44.535  0.00  0.00    +0.000 C 
ATOM      5  C   UNL     1      14.402  15.596  44.754  0.00  0.00    +0.000 A 
ATOM      6  C   UNL     1      15.457  13.421  44.833  0.00  0.00    +0.000 A 
ATOM      7  C   UNL     1      12.183  15.800  43.790  0.00  0.00    +0.000 C 
ATOM      8  O   UNL     1      13.283  16.387  44.531  0.00  0.00    +0.000 OA
ATOM      9  C   UNL     1      15.646  16.203  44.929  0.00  0.00    +0.000 A 
ATOM     10  C   UNL     1      16.696  14.033  45.000  0.00  0.00    +0.000 A 
ATOM     11  C   UNL     1      16.794  15.419  45.061  0.00  0.00    +0.000 A 
ENDROOT
BRANCH   7  12
ATOM     12  C   UNL     1      11.024  16.762  43.596  0.00  0.00    +0.000 A 
ATOM     13  C   UNL     1      11.214  18.137  43.433  0.00  0.00    +0.000 A 
ATOM     14  C   UNL     1       9.726  16.250  43.645  0.00  0.00    +0.000 A 
ATOM     15  C   UNL     1      10.112  18.988  43.328  0.00  0.00    +0.000 A 
ATOM     16  C   UNL     1       8.627  17.097  43.539  0.00  0.00    +0.000 A 
ATOM     17  C   UNL     1       8.819  18.467  43.386  0.00  0.00    +0.000 A 
BRANCH  17  18
ATOM     18  O   UNL     1       7.730  19.280  43.313  0.00  0.00    +0.000 OA
ATOM     19  H   UNL     1       7.931  20.147  43.704  0.00  0.00    +0.000 HD
ENDBRANCH  17  18
ENDBRANCH   7  12
BRANCH   6  20
ATOM     20  O   UNL     1      15.413  12.064  44.737  0.00  0.00    +0.000 OA
ATOM     21  H   UNL     1      14.617  11.845  44.207  0.00  0.00    +0.000 HD
ENDBRANCH   6  20
BRANCH  11  22
ATOM     22  O   UNL     1      18.024  15.990  45.218  0.00  0.00    +0.000 OA
ATOM     23  H   UNL     1      18.175  16.223  46.148  0.00  0.00    +0.000 HD
ENDBRANCH  11  22
TORSDOF 4
ENDMDL
MODEL 13
REMARK VINA RESULT:    -5.520      1.428      2.078
REMARK INTER + INTRA:          -6.623
REMARK INTER:                  -6.330
REMARK INTRA:                  -0.293
REMARK UNBOUND:                -0.296
REMARK  Name = opt75.pdb
REMARK  4 active torsions:
REMARK  status: ('A' for Active; 'I' for Inactive)
REMARK    1  A    between atoms: C_6  and  O_10
REMARK    2  A    between atoms: C_7  and  C_12
REMARK    3  A    between atoms: C_13  and  O_16
REMARK    4  A    between atoms: C_19  and  O_20
REMARK                            x       y       z     vdW  Elec       q    Type
REMARK                         _______ _______ _______ _____ _____    ______ ____
ROOT
ATOM      1  O   UNL     1       7.986  11.429  42.702  0.00  0.00    +0.000 OA
ATOM      2  C   UNL     1       8.624  12.428  42.981  0.00  0.00    +0.000 C 
ATOM      3  C   UNL     1       7.998  13.718  43.453  0.00  0.00    +0.000 A 
ATOM      4  C   UNL     1      10.129  12.405  42.865  0.00  0.00    +0.000 C 
ATOM      5  C   UNL     1       8.838  14.793  43.789  0.00  0.00    +0.000 A 
ATOM      6  C   UNL     1       6.610  13.877  43.579  0.00  0.00    +0.000 A 
ATOM      7  C   UNL     1      10.727  13.280  43.978  0.00  0.00    +0.000 C 
ATOM      8  O   UNL     1      10.216  14.626  43.798  0.00  0.00    +0.000 OA
ATOM      9  C   UNL     1       8.294  16.018  44.180  0.00  0.00    +0.000 A 
ATOM     10  C   UNL     1       6.074  15.099  43.976  0.00  0.00    +0.000 A 
ATOM     11  C   UNL     1       6.909  16.173  44.265  0.00  0.00    +0.000 A 
ENDROOT
BRANCH   7  12
ATOM     12  C   UNL     1      12.245  13.222  43.986  0.00  0.00    +0.000 A 
ATOM     13  C   UNL     1      13.013  13.923  44.920  0.00  0.00    +0.000 A 
ATOM     14  C   UNL     1      12.882  12.490  42.983  0.00  0.00    +0.000 A 
ATOM     15  C   UNL     1      14.407  13.894  44.842  0.00  0.00    +0.000 A 
ATOM     16  C   UNL     1      14.271  12.459  42.905  0.00  0.00    +0.000 A 
ATOM     17  C   UNL     1      15.034  13.165  43.831  0.00  0.00    +0.000 A 
BRANCH  17  18
ATOM     18  O   UNL     1      16.391  13.143  43.718  0.00  0.00    +0.000 OA
ATOM     19  H   UNL     1      16.747  12.325  44.102  0.00  0.00    +0.000 HD
ENDBRANCH  17  18
ENDBRANCH   7  12
BRANCH   6  20
ATOM     20  O   UNL     1       5.757  12.841  43.347  0.00  0.00    +0.000 OA
ATOM     21  H   UNL     1       6.050  12.101  43.921  0.00  0.00    +0.000 HD
ENDBRANCH   6  20
BRANCH  11  22
ATOM     22  O   UNL     1       6.355  17.355  44.659  0.00  0.00    +0.000 OA
ATOM     23  H   UNL     1       6.775  17.674  45.474  0.00  0.00    +0.000 HD
ENDBRANCH  11  22
TORSDOF 4
ENDMDL
MODEL 14
REMARK VINA RESULT:    -5.469      1.676      6.692
REMARK INTER + INTRA:          -6.565
REMARK INTER:                  -6.276
REMARK INTRA:                  -0.288
REMARK UNBOUND:                -0.296
REMARK  Name = opt75.pdb
REMARK  4 active torsions:
REMARK  status: ('A' for Active; 'I' for Inactive)
REMARK    1  A    between atoms: C_6  and  O_10
REMARK    2  A    between atoms: C_7  and  C_12
REMARK    3  A    between atoms: C_13  and  O_16
REMARK    4  A    between atoms: C_19  and  O_20
REMARK                            x       y       z     vdW  Elec       q    Type
REMARK                         _______ _______ _______ _____ _____    ______ ____
ROOT
ATOM      1  O   UNL     1      14.491  11.656  43.523  0.00  0.00    +0.000 OA
ATOM      2  C   UNL     1      13.735  12.560  43.828  0.00  0.00    +0.000 C 
ATOM      3  C   UNL     1      14.188  13.970  44.123  0.00  0.00    +0.000 A 
ATOM      4  C   UNL     1      12.252  12.289  43.921  0.00  0.00    +0.000 C 
ATOM      5  C   UNL     1      13.219  14.942  44.423  0.00  0.00    +0.000 A 
ATOM      6  C   UNL     1      15.540  14.344  44.096  0.00  0.00    +0.000 A 
ATOM      7  C   UNL     1      11.488  13.539  43.457  0.00  0.00    +0.000 C 
ATOM      8  O   UNL     1      11.869  14.633  44.331  0.00  0.00    +0.000 OA
ATOM      9  C   UNL     1      13.603  16.243  44.751  0.00  0.00    +0.000 A 
ATOM     10  C   UNL     1      15.916  15.646  44.417  0.00  0.00    +0.000 A 
ATOM     11  C   UNL     1      14.955  16.593  44.756  0.00  0.00    +0.000 A 
ENDROOT
BRANCH   7  12
ATOM     12  C   UNL     1       9.988  13.305  43.426  0.00  0.00    +0.000 A 
ATOM     13  C   UNL     1       9.336  12.796  42.300  0.00  0.00    +0.000 A 
ATOM     14  C   UNL     1       9.240  13.672  44.545  0.00  0.00    +0.000 A 
ATOM     15  C   UNL     1       7.946  12.665  42.296  0.00  0.00    +0.000 A 
ATOM     16  C   UNL     1       7.854  13.541  44.544  0.00  0.00    +0.000 A 
ATOM     17  C   UNL     1       7.206  13.042  43.418  0.00  0.00    +0.000 A 
BRANCH  17  18
ATOM     18  O   UNL     1       5.847  12.948  43.427  0.00  0.00    +0.000 OA
ATOM     19  H   UNL     1       5.513  12.823  42.524  0.00  0.00    +0.000 HD
ENDBRANCH  17  18
ENDBRANCH   7  12
BRANCH   6  20
ATOM     20  O   UNL     1      16.509  13.461  43.730  0.00  0.00    +0.000 OA
ATOM     21  H   UNL     1      16.061  12.605  43.560  0.00  0.00    +0.000 HD
ENDBRANCH   6  20
BRANCH  11  22
ATOM     22  O   UNL     1      15.354  17.862  45.058  0.00  0.00    +0.000 OA
ATOM     23  H   UNL     1      15.187  18.459  44.311  0.00  0.00    +0.000 HD
ENDBRANCH  11  22
TORSDOF 4
ENDMDL
MODEL 15
REMARK VINA RESULT:    -5.449      1.785      3.574
REMARK INTER + INTRA:          -6.542
REMARK INTER:                  -6.274
REMARK INTRA:                  -0.268
REMARK UNBOUND:                -0.296
REMARK  Name = opt75.pdb
REMARK  4 active torsions:
REMARK  status: ('A' for Active; 'I' for Inactive)
REMARK    1  A    between atoms: C_6  and  O_10
REMARK    2  A    between atoms: C_7  and  C_12
REMARK    3  A    between atoms: C_13  and  O_16
REMARK    4  A    between atoms: C_19  and  O_20
REMARK                            x       y       z     vdW  Elec       q    Type
REMARK                         _______ _______ _______ _____ _____    ______ ____
ROOT
ATOM      1  O   UNL     1      11.472  17.342  44.204  0.00  0.00    +0.000 OA
ATOM      2  C   UNL     1      11.938  16.218  44.194  0.00  0.00    +0.000 C 
ATOM      3  C   UNL     1      11.163  14.991  43.776  0.00  0.00    +0.000 A 
ATOM      4  C   UNL     1      13.374  16.005  44.613  0.00  0.00    +0.000 C 
ATOM      5  C   UNL     1      11.820  13.749  43.762  0.00  0.00    +0.000 A 
ATOM      6  C   UNL     1       9.816  15.051  43.390  0.00  0.00    +0.000 A 
ATOM      7  C   UNL     1      13.974  14.869  43.770  0.00  0.00    +0.000 C 
ATOM      8  O   UNL     1      13.183  13.678  44.014  0.00  0.00    +0.000 OA
ATOM      9  C   UNL     1      11.123  12.586  43.431  0.00  0.00    +0.000 A 
ATOM     10  C   UNL     1       9.129  13.888  43.053  0.00  0.00    +0.000 A 
ATOM     11  C   UNL     1       9.773  12.655  43.084  0.00  0.00    +0.000 A 
ENDROOT
BRANCH   7  12
ATOM     12  C   UNL     1      15.450  14.668  44.065  0.00  0.00    +0.000 A 
ATOM     13  C   UNL     1      15.973  14.764  45.358  0.00  0.00    +0.000 A 
ATOM     14  C   UNL     1      16.313  14.441  42.991  0.00  0.00    +0.000 A 
ATOM     15  C   UNL     1      17.348  14.640  45.568  0.00  0.00    +0.000 A 
ATOM     16  C   UNL     1      17.683  14.316  43.199  0.00  0.00    +0.000 A 
ATOM     17  C   UNL     1      18.202  14.421  44.486  0.00  0.00    +0.000 A 
BRANCH  17  18
ATOM     18  O   UNL     1      19.549  14.323  44.663  0.00  0.00    +0.000 OA
ATOM     19  H   UNL     1      19.966  15.193  44.549  0.00  0.00    +0.000 HD
ENDBRANCH  17  18
ENDBRANCH   7  12
BRANCH   6  20
ATOM     20  O   UNL     1       9.158  16.240  43.305  0.00  0.00    +0.000 OA
ATOM     21  H   UNL     1       8.370  16.167  43.885  0.00  0.00    +0.000 HD
ENDBRANCH   6  20
BRANCH  11  22
ATOM     22  O   UNL     1       9.074  11.535  42.742  0.00  0.00    +0.000 OA
ATOM     23  H   UNL     1       8.388  11.747  42.089  0.00  0.00    +0.000 HD
ENDBRANCH  11  22
TORSDOF 4
ENDMDL
MODEL 16
REMARK VINA RESULT:    -5.341      2.745      6.532
REMARK INTER + INTRA:          -6.418
REMARK INTER:                  -6.129
REMARK INTRA:                  -0.290
REMARK UNBOUND:                -0.296
REMARK  Name = opt75.pdb
REMARK  4 active torsions:
REMARK  status: ('A' for Active; 'I' for Inactive)
REMARK    1  A    between atoms: C_6  and  O_10
REMARK    2  A    between atoms: C_7  and  C_12
REMARK    3  A    between atoms: C_13  and  O_16
REMARK    4  A    between atoms: C_19  and  O_20
REMARK                            x       y       z     vdW  Elec       q    Type
REMARK                         _______ _______ _______ _____ _____    ______ ____
ROOT
ATOM      1  O   UNL     1      12.059  11.167  43.518  0.00  0.00    +0.000 OA
ATOM      2  C   UNL     1      12.135  12.382  43.479  0.00  0.00    +0.000 C 
ATOM      3  C   UNL     1      13.322  13.165  43.987  0.00  0.00    +0.000 A 
ATOM      4  C   UNL     1      10.996  13.179  42.889  0.00  0.00    +0.000 C 
ATOM      5  C   UNL     1      13.317  14.564  43.850  0.00  0.00    +0.000 A 
ATOM      6  C   UNL     1      14.431  12.545  44.580  0.00  0.00    +0.000 A 
ATOM      7  C   UNL     1      11.571  14.409  42.170  0.00  0.00    +0.000 C 
ATOM      8  O   UNL     1      12.295  15.193  43.153  0.00  0.00    +0.000 OA
ATOM      9  C   UNL     1      14.372  15.325  44.354  0.00  0.00    +0.000 A 
ATOM     10  C   UNL     1      15.484  13.310  45.074  0.00  0.00    +0.000 A 
ATOM     11  C   UNL     1      15.454  14.697  44.974  0.00  0.00    +0.000 A 
ENDROOT
BRANCH   7  12
ATOM     12  C   UNL     1      10.488  15.206  41.462  0.00  0.00    +0.000 A 
ATOM     13  C   UNL     1       9.153  14.795  41.440  0.00  0.00    +0.000 A 
ATOM     14  C   UNL     1      10.865  16.352  40.761  0.00  0.00    +0.000 A 
ATOM     15  C   UNL     1       8.208  15.524  40.716  0.00  0.00    +0.000 A 
ATOM     16  C   UNL     1       9.925  17.082  40.041  0.00  0.00    +0.000 A 
ATOM     17  C   UNL     1       8.597  16.666  40.013  0.00  0.00    +0.000 A 
BRANCH  17  18
ATOM     18  O   UNL     1       7.698  17.378  39.278  0.00  0.00    +0.000 OA
ATOM     19  H   UNL     1       8.073  18.241  39.035  0.00  0.00    +0.000 HD
ENDBRANCH  17  18
ENDBRANCH   7  12
BRANCH   6  20
ATOM     20  O   UNL     1      14.523  11.189  44.662  0.00  0.00    +0.000 OA
ATOM     21  H   UNL     1      14.507  10.850  43.741  0.00  0.00    +0.000 HD
ENDBRANCH   6  20
BRANCH  11  22
ATOM     22  O   UNL     1      16.504  15.419  45.461  0.00  0.00    +0.000 OA
ATOM     23  H   UNL     1      16.212  16.303  45.738  0.00  0.00    +0.000 HD
ENDBRANCH  11  22
TORSDOF 4
ENDMDL
MODEL 17
REMARK VINA RESULT:    -5.307      2.257      3.739
REMARK INTER + INTRA:          -6.379
REMARK INTER:                  -6.078
REMARK INTRA:                  -0.301
REMARK UNBOUND:                -0.296
REMARK  Name = opt75.pdb
REMARK  4 active torsions:
REMARK  status: ('A' for Active; 'I' for Inactive)
REMARK    1  A    between atoms: C_6  and  O_10
REMARK    2  A    between atoms: C_7  and  C_12
REMARK    3  A    between atoms: C_13  and  O_16
REMARK    4  A    between atoms: C_19  and  O_20
REMARK                            x       y       z     vdW  Elec       q    Type
REMARK                         _______ _______ _______ _____ _____    ______ ____
ROOT
ATOM      1  O   UNL     1      14.225  11.531  43.672  0.00  0.00    +0.000 OA
ATOM      2  C   UNL     1      14.253  12.742  43.789  0.00  0.00    +0.000 C 
ATOM      3  C   UNL     1      13.018  13.610  43.836  0.00  0.00    +0.000 A 
ATOM      4  C   UNL     1      15.584  13.447  43.903  0.00  0.00    +0.000 C 
ATOM      5  C   UNL     1      13.172  14.995  44.018  0.00  0.00    +0.000 A 
ATOM      6  C   UNL     1      11.725  13.081  43.714  0.00  0.00    +0.000 A 
ATOM      7  C   UNL     1      15.430  14.652  44.844  0.00  0.00    +0.000 C 
ATOM      8  O   UNL     1      14.428  15.530  44.269  0.00  0.00    +0.000 OA
ATOM      9  C   UNL     1      12.058  15.835  44.014  0.00  0.00    +0.000 A 
ATOM     10  C   UNL     1      10.617  13.924  43.719  0.00  0.00    +0.000 A 
ATOM     11  C   UNL     1      10.779  15.299  43.856  0.00  0.00    +0.000 A 
ENDROOT
BRANCH   7  12
ATOM     12  C   UNL     1      16.756  15.351  45.088  0.00  0.00    +0.000 A 
ATOM     13  C   UNL     1      16.837  16.615  45.678  0.00  0.00    +0.000 A 
ATOM     14  C   UNL     1      17.922  14.724  44.645  0.00  0.00    +0.000 A 
ATOM     15  C   UNL     1      18.075  17.245  45.816  0.00  0.00    +0.000 A 
ATOM     16  C   UNL     1      19.158  15.350  44.783  0.00  0.00    +0.000 A 
ATOM     17  C   UNL     1      19.234  16.613  45.364  0.00  0.00    +0.000 A 
BRANCH  17  18
ATOM     18  O   UNL     1      20.449  17.219  45.463  0.00  0.00    +0.000 OA
ATOM     19  H   UNL     1      20.859  17.011  46.319  0.00  0.00    +0.000 HD
ENDBRANCH  17  18
ENDBRANCH   7  12
BRANCH   6  20
ATOM     20  O   UNL     1      11.517  11.739  43.620  0.00  0.00    +0.000 OA
ATOM     21  H   UNL     1      11.840  11.465  42.735  0.00  0.00    +0.000 HD
ENDBRANCH   6  20
BRANCH  11  22
ATOM     22  O   UNL     1       9.673  16.098  43.865  0.00  0.00    +0.000 OA
ATOM     23  H   UNL     1       9.918  17.022  43.698  0.00  0.00    +0.000 HD
ENDBRANCH  11  22
TORSDOF 4
ENDMDL
MODEL 18
REMARK VINA RESULT:    -5.245      1.990      3.463
REMARK INTER + INTRA:          -6.308
REMARK INTER:                  -6.001
REMARK INTRA:                  -0.307
REMARK UNBOUND:                -0.296
REMARK  Name = opt75.pdb
REMARK  4 active torsions:
REMARK  status: ('A' for Active; 'I' for Inactive)
REMARK    1  A    between atoms: C_6  and  O_10
REMARK    2  A    between atoms: C_7  and  C_12
REMARK    3  A    between atoms: C_13  and  O_16
REMARK    4  A    between atoms: C_19  and  O_20
REMARK                            x       y       z     vdW  Elec       q    Type
REMARK                         _______ _______ _______ _____ _____    ______ ____
ROOT
ATOM      1  O   UNL     1       8.014  16.181  43.485  0.00  0.00    +0.000 OA
ATOM      2  C   UNL     1       8.521  15.074  43.507  0.00  0.00    +0.000 C 
ATOM      3  C   UNL     1       7.731  13.788  43.483  0.00  0.00    +0.000 A 
ATOM      4  C   UNL     1      10.026  14.947  43.555  0.00  0.00    +0.000 C 
ATOM      5  C   UNL     1       8.427  12.568  43.467  0.00  0.00    +0.000 A 
ATOM      6  C   UNL     1       6.328  13.770  43.464  0.00  0.00    +0.000 A 
ATOM      7  C   UNL     1      10.446  13.709  42.749  0.00  0.00    +0.000 C 
ATOM      8  O   UNL     1       9.810  12.554  43.356  0.00  0.00    +0.000 OA
ATOM      9  C   UNL     1       7.730  11.358  43.497  0.00  0.00    +0.000 A 
ATOM     10  C   UNL     1       5.640  12.560  43.486  0.00  0.00    +0.000 A 
ATOM     11  C   UNL     1       6.335  11.356  43.515  0.00  0.00    +0.000 A 
ENDROOT
BRANCH   7  12
ATOM     12  C   UNL     1      11.956  13.575  42.667  0.00  0.00    +0.000 A 
ATOM     13  C   UNL     1      12.598  12.333  42.684  0.00  0.00    +0.000 A 
ATOM     14  C   UNL     1      12.721  14.742  42.637  0.00  0.00    +0.000 A 
ATOM     15  C   UNL     1      13.992  12.266  42.678  0.00  0.00    +0.000 A 
ATOM     16  C   UNL     1      14.111  14.677  42.629  0.00  0.00    +0.000 A 
ATOM     17  C   UNL     1      14.748  13.440  42.655  0.00  0.00    +0.000 A 
BRANCH  17  18
ATOM     18  O   UNL     1      16.109  13.400  42.676  0.00  0.00    +0.000 OA
ATOM     19  H   UNL     1      16.451  13.976  43.380  0.00  0.00    +0.000 HD
ENDBRANCH  17  18
ENDBRANCH   7  12
BRANCH   6  20
ATOM     20  O   UNL     1       5.608  14.924  43.394  0.00  0.00    +0.000 OA
ATOM     21  H   UNL     1       6.226  15.655  43.613  0.00  0.00    +0.000 HD
ENDBRANCH   6  20
BRANCH  11  22
ATOM     22  O   UNL     1       5.631  10.186  43.528  0.00  0.00    +0.000 OA
ATOM     23  H   UNL     1       5.766   9.698  42.700  0.00  0.00    +0.000 HD
ENDBRANCH  11  22
TORSDOF 4
ENDMDL
MODEL 19
REMARK VINA RESULT:    -5.194      1.998      6.827
REMARK INTER + INTRA:          -6.250
REMARK INTER:                  -5.951
REMARK INTRA:                  -0.299
REMARK UNBOUND:                -0.296
REMARK  Name = opt75.pdb
REMARK  4 active torsions:
REMARK  status: ('A' for Active; 'I' for Inactive)
REMARK    1  A    between atoms: C_6  and  O_10
REMARK    2  A    between atoms: C_7  and  C_12
REMARK    3  A    between atoms: C_13  and  O_16
REMARK    4  A    between atoms: C_19  and  O_20
REMARK                            x       y       z     vdW  Elec       q    Type
REMARK                         _______ _______ _______ _____ _____    ______ ____
ROOT
ATOM      1  O   UNL     1      15.092  12.396  41.813  0.00  0.00    +0.000 OA
ATOM      2  C   UNL     1      14.395  13.051  42.567  0.00  0.00    +0.000 C 
ATOM      3  C   UNL     1      14.860  14.312  43.256  0.00  0.00    +0.000 A 
ATOM      4  C   UNL     1      12.979  12.606  42.844  0.00  0.00    +0.000 C 
ATOM      5  C   UNL     1      13.952  15.009  44.072  0.00  0.00    +0.000 A 
ATOM      6  C   UNL     1      16.160  14.815  43.102  0.00  0.00    +0.000 A 
ATOM      7  C   UNL     1      12.094  13.850  43.024  0.00  0.00    +0.000 C 
ATOM      8  O   UNL     1      12.625  14.608  44.141  0.00  0.00    +0.000 OA
ATOM      9  C   UNL     1      14.360  16.149  44.766  0.00  0.00    +0.000 A 
ATOM     10  C   UNL     1      16.558  15.957  43.792  0.00  0.00    +0.000 A 
ATOM     11  C   UNL     1      15.668  16.619  44.632  0.00  0.00    +0.000 A 
ENDROOT
BRANCH   7  12
ATOM     12  C   UNL     1      10.632  13.480  43.205  0.00  0.00    +0.000 A 
ATOM     13  C   UNL     1       9.890  12.854  42.200  0.00  0.00    +0.000 A 
ATOM     14  C   UNL     1      10.004  13.841  44.398  0.00  0.00    +0.000 A 
ATOM     15  C   UNL     1       8.531  12.599  42.389  0.00  0.00    +0.000 A 
ATOM     16  C   UNL     1       8.649  13.586  44.589  0.00  0.00    +0.000 A 
ATOM     17  C   UNL     1       7.910  12.970  43.583  0.00  0.00    +0.000 A 
BRANCH  17  18
ATOM     18  O   UNL     1       6.580  12.755  43.780  0.00  0.00    +0.000 OA
ATOM     19  H   UNL     1       6.430  11.849  44.097  0.00  0.00    +0.000 HD
ENDBRANCH  17  18
ENDBRANCH   7  12
BRANCH   6  20
ATOM     20  O   UNL     1      17.050  14.224  42.259  0.00  0.00    +0.000 OA
ATOM     21  H   UNL     1      16.577  14.069  41.413  0.00  0.00    +0.000 HD
ENDBRANCH   6  20
BRANCH  11  22
ATOM     22  O   UNL     1      16.086  17.739  45.288  0.00  0.00    +0.000 OA
ATOM     23  H   UNL     1      15.428  18.448  45.206  0.00  0.00    +0.000 HD
ENDBRANCH  11  22
TORSDOF 4
ENDMDL
