MODEL 1
REMARK VINA RESULT:    -4.141      0.000      0.000
REMARK INTER + INTRA:          -4.527
REMARK INTER:                  -4.504
REMARK INTRA:                  -0.023
REMARK UNBOUND:                -0.023
REMARK  Name = opt14.pdb
REMARK  3 active torsions:
REMARK  status: ('A' for Active; 'I' for Inactive)
REMARK    1  A    between atoms: O_1  and  C_2
REMARK    2  A    between atoms: O_1  and  C_3
REMARK    3  A    between atoms: C_8  and  O_9
REMARK                            x       y       z     vdW  Elec       q    Type
REMARK                         _______ _______ _______ _____ _____    ______ ____
ROOT
ATOM      1  C   UNL     1      13.920  14.661  44.651  0.00  0.00    +0.000 A 
ATOM      2  C   UNL     1      12.929  13.676  44.574  0.00  0.00    +0.000 A 
ATOM      3  C   UNL     1      15.263  14.290  44.611  0.00  0.00    +0.000 A 
ATOM      4  C   UNL     1      13.286  12.333  44.459  0.00  0.00    +0.000 A 
ATOM      5  C   UNL     1      15.620  12.948  44.496  0.00  0.00    +0.000 A 
ATOM      6  C   UNL     1      14.632  11.969  44.421  0.00  0.00    +0.000 A 
ENDROOT
BRANCH   1   7
ATOM      7  O   UNL     1      13.624  16.007  44.771  0.00  0.00    +0.000 OA
ATOM      8  C   UNL     1      12.273  16.520  44.845  0.00  0.00    +0.000 C 
ENDBRANCH   1   7
BRANCH   6   9
ATOM      9  O   UNL     1      14.985  10.657  44.312  0.00  0.00    +0.000 OA
ATOM     10  H   UNL     1      15.924  10.541  44.544  0.00  0.00    +0.000 HD
ENDBRANCH   6   9
TORSDOF 2
ENDMDL
MODEL 2
REMARK VINA RESULT:    -4.123      0.100      1.612
REMARK INTER + INTRA:          -4.508
REMARK INTER:                  -4.480
REMARK INTRA:                  -0.028
REMARK UNBOUND:                -0.023
REMARK  Name = opt14.pdb
REMARK  3 active torsions:
REMARK  status: ('A' for Active; 'I' for Inactive)
REMARK    1  A    between atoms: O_1  and  C_2
REMARK    2  A    between atoms: O_1  and  C_3
REMARK    3  A    between atoms: C_8  and  O_9
REMARK                            x       y       z     vdW  Elec       q    Type
REMARK                         _______ _______ _______ _____ _____    ______ ____
ROOT
ATOM      1  C   UNL     1      13.968  14.757  44.609  0.00  0.00    +0.000 A 
ATOM      2  C   UNL     1      15.312  14.367  44.577  0.00  0.00    +0.000 A 
ATOM      3  C   UNL     1      12.968  13.786  44.563  0.00  0.00    +0.000 A 
ATOM      4  C   UNL     1      15.645  13.015  44.497  0.00  0.00    +0.000 A 
ATOM      5  C   UNL     1      13.302  12.435  44.484  0.00  0.00    +0.000 A 
ATOM      6  C   UNL     1      14.640  12.049  44.450  0.00  0.00    +0.000 A 
ENDROOT
BRANCH   1   7
ATOM      7  O   UNL     1      13.579  16.082  44.682  0.00  0.00    +0.000 OA
ATOM      8  C   UNL     1      12.206  16.498  44.867  0.00  0.00    +0.000 C 
ENDBRANCH   1   7
BRANCH   6   9
ATOM      9  O   UNL     1      14.963  10.727  44.369  0.00  0.00    +0.000 OA
ATOM     10  H   UNL     1      15.004  10.336  45.261  0.00  0.00    +0.000 HD
ENDBRANCH   6   9
TORSDOF 2
ENDMDL
MODEL 3
REMARK VINA RESULT:    -4.020      1.145      1.945
REMARK INTER + INTRA:          -4.395
REMARK INTER:                  -4.377
REMARK INTRA:                  -0.018
REMARK UNBOUND:                -0.023
REMARK  Name = opt14.pdb
REMARK  3 active torsions:
REMARK  status: ('A' for Active; 'I' for Inactive)
REMARK    1  A    between atoms: O_1  and  C_2
REMARK    2  A    between atoms: O_1  and  C_3
REMARK    3  A    between atoms: C_8  and  O_9
REMARK                            x       y       z     vdW  Elec       q    Type
REMARK                         _______ _______ _______ _____ _____    ______ ____
ROOT
ATOM      1  C   UNL     1      12.896  14.041  43.693  0.00  0.00    +0.000 A 
ATOM      2  C   UNL     1      14.095  14.008  44.416  0.00  0.00    +0.000 A 
ATOM      3  C   UNL     1      12.324  12.848  43.255  0.00  0.00    +0.000 A 
ATOM      4  C   UNL     1      14.710  12.788  44.691  0.00  0.00    +0.000 A 
ATOM      5  C   UNL     1      12.940  11.629  43.531  0.00  0.00    +0.000 A 
ATOM      6  C   UNL     1      14.133  11.598  44.248  0.00  0.00    +0.000 A 
ENDROOT
BRANCH   1   7
ATOM      7  O   UNL     1      12.244  15.222  43.387  0.00  0.00    +0.000 OA
ATOM      8  C   UNL     1      11.866  16.202  44.382  0.00  0.00    +0.000 C 
ENDBRANCH   1   7
BRANCH   6   9
ATOM      9  O   UNL     1      14.735  10.404  44.513  0.00  0.00    +0.000 OA
ATOM     10  H   UNL     1      15.531  10.299  43.961  0.00  0.00    +0.000 HD
ENDBRANCH   6   9
TORSDOF 2
ENDMDL
MODEL 4
REMARK VINA RESULT:    -3.957      1.576      1.778
REMARK INTER + INTRA:          -4.327
REMARK INTER:                  -4.307
REMARK INTRA:                  -0.020
REMARK UNBOUND:                -0.023
REMARK  Name = opt14.pdb
REMARK  3 active torsions:
REMARK  status: ('A' for Active; 'I' for Inactive)
REMARK    1  A    between atoms: O_1  and  C_2
REMARK    2  A    between atoms: O_1  and  C_3
REMARK    3  A    between atoms: C_8  and  O_9
REMARK                            x       y       z     vdW  Elec       q    Type
REMARK                         _______ _______ _______ _____ _____    ______ ____
ROOT
ATOM      1  C   UNL     1      12.514  13.795  43.655  0.00  0.00    +0.000 A 
ATOM      2  C   UNL     1      12.116  12.517  43.243  0.00  0.00    +0.000 A 
ATOM      3  C   UNL     1      13.691  13.946  44.388  0.00  0.00    +0.000 A 
ATOM      4  C   UNL     1      12.892  11.406  43.567  0.00  0.00    +0.000 A 
ATOM      5  C   UNL     1      14.466  12.834  44.711  0.00  0.00    +0.000 A 
ATOM      6  C   UNL     1      14.067  11.564  44.302  0.00  0.00    +0.000 A 
ENDROOT
BRANCH   1   7
ATOM      7  O   UNL     1      11.782  14.932  43.367  0.00  0.00    +0.000 OA
ATOM      8  C   UNL     1      10.340  14.995  43.468  0.00  0.00    +0.000 C 
ENDBRANCH   1   7
BRANCH   6   9
ATOM      9  O   UNL     1      14.827  10.478  44.623  0.00  0.00    +0.000 OA
ATOM     10  H   UNL     1      14.380   9.945  45.305  0.00  0.00    +0.000 HD
ENDBRANCH   6   9
TORSDOF 2
ENDMDL
MODEL 5
REMARK VINA RESULT:    -3.776      2.368      3.145
REMARK INTER + INTRA:          -4.130
REMARK INTER:                  -4.107
REMARK INTRA:                  -0.024
REMARK UNBOUND:                -0.023
REMARK  Name = opt14.pdb
REMARK  3 active torsions:
REMARK  status: ('A' for Active; 'I' for Inactive)
REMARK    1  A    between atoms: O_1  and  C_2
REMARK    2  A    between atoms: O_1  and  C_3
REMARK    3  A    between atoms: C_8  and  O_9
REMARK                            x       y       z     vdW  Elec       q    Type
REMARK                         _______ _______ _______ _____ _____    ______ ____
ROOT
ATOM      1  C   UNL     1      13.985  13.449  43.073  0.00  0.00    +0.000 A 
ATOM      2  C   UNL     1      15.358  13.598  42.847  0.00  0.00    +0.000 A 
ATOM      3  C   UNL     1      13.507  13.361  44.380  0.00  0.00    +0.000 A 
ATOM      4  C   UNL     1      16.240  13.654  43.925  0.00  0.00    +0.000 A 
ATOM      5  C   UNL     1      14.389  13.417  45.456  0.00  0.00    +0.000 A 
ATOM      6  C   UNL     1      15.756  13.563  45.230  0.00  0.00    +0.000 A 
ENDROOT
BRANCH   1   7
ATOM      7  O   UNL     1      13.065  13.383  42.042  0.00  0.00    +0.000 OA
ATOM      8  C   UNL     1      11.938  12.476  42.040  0.00  0.00    +0.000 C 
ENDBRANCH   1   7
BRANCH   6   9
ATOM      9  O   UNL     1      16.616  13.614  46.287  0.00  0.00    +0.000 OA
ATOM     10  H   UNL     1      16.320  14.285  46.929  0.00  0.00    +0.000 HD
ENDBRANCH   6   9
TORSDOF 2
ENDMDL
MODEL 6
REMARK VINA RESULT:    -3.757      2.327      2.833
REMARK INTER + INTRA:          -4.110
REMARK INTER:                  -4.093
REMARK INTRA:                  -0.017
REMARK UNBOUND:                -0.023
REMARK  Name = opt14.pdb
REMARK  3 active torsions:
REMARK  status: ('A' for Active; 'I' for Inactive)
REMARK    1  A    between atoms: O_1  and  C_2
REMARK    2  A    between atoms: O_1  and  C_3
REMARK    3  A    between atoms: C_8  and  O_9
REMARK                            x       y       z     vdW  Elec       q    Type
REMARK                         _______ _______ _______ _____ _____    ______ ____
ROOT
ATOM      1  C   UNL     1      13.515  13.355  43.168  0.00  0.00    +0.000 A 
ATOM      2  C   UNL     1      13.131  13.309  44.513  0.00  0.00    +0.000 A 
ATOM      3  C   UNL     1      14.866  13.445  42.839  0.00  0.00    +0.000 A 
ATOM      4  C   UNL     1      14.099  13.357  45.516  0.00  0.00    +0.000 A 
ATOM      5  C   UNL     1      15.832  13.493  43.842  0.00  0.00    +0.000 A 
ATOM      6  C   UNL     1      15.449  13.450  45.181  0.00  0.00    +0.000 A 
ENDROOT
BRANCH   1   7
ATOM      7  O   UNL     1      12.599  13.316  42.132  0.00  0.00    +0.000 OA
ATOM      8  C   UNL     1      11.769  12.165  41.848  0.00  0.00    +0.000 C 
ENDBRANCH   1   7
BRANCH   6   9
ATOM      9  O   UNL     1      16.397  13.500  46.159  0.00  0.00    +0.000 OA
ATOM     10  H   UNL     1      16.997  14.253  46.007  0.00  0.00    +0.000 HD
ENDBRANCH   6   9
TORSDOF 2
ENDMDL
MODEL 7
REMARK VINA RESULT:    -3.650      1.357      1.514
REMARK INTER + INTRA:          -3.993
REMARK INTER:                  -3.964
REMARK INTRA:                  -0.028
REMARK UNBOUND:                -0.023
REMARK  Name = opt14.pdb
REMARK  3 active torsions:
REMARK  status: ('A' for Active; 'I' for Inactive)
REMARK    1  A    between atoms: O_1  and  C_2
REMARK    2  A    between atoms: O_1  and  C_3
REMARK    3  A    between atoms: C_8  and  O_9
REMARK                            x       y       z     vdW  Elec       q    Type
REMARK                         _______ _______ _______ _____ _____    ______ ____
ROOT
ATOM      1  C   UNL     1      14.073  15.440  44.681  0.00  0.00    +0.000 A 
ATOM      2  C   UNL     1      12.808  14.846  44.586  0.00  0.00    +0.000 A 
ATOM      3  C   UNL     1      15.203  14.634  44.814  0.00  0.00    +0.000 A 
ATOM      4  C   UNL     1      12.684  13.458  44.629  0.00  0.00    +0.000 A 
ATOM      5  C   UNL     1      15.078  13.247  44.856  0.00  0.00    +0.000 A 
ATOM      6  C   UNL     1      13.819  12.658  44.764  0.00  0.00    +0.000 A 
ENDROOT
BRANCH   1   7
ATOM      7  O   UNL     1      14.256  16.810  44.650  0.00  0.00    +0.000 OA
ATOM      8  C   UNL     1      15.557  17.440  44.704  0.00  0.00    +0.000 C 
ENDBRANCH   1   7
BRANCH   6   9
ATOM      9  O   UNL     1      13.700  11.301  44.808  0.00  0.00    +0.000 OA
ATOM     10  H   UNL     1      13.315  10.970  43.977  0.00  0.00    +0.000 HD
ENDBRANCH   6   9
TORSDOF 2
ENDMDL
MODEL 8
REMARK VINA RESULT:    -3.481      2.157      3.271
REMARK INTER + INTRA:          -3.810
REMARK INTER:                  -3.781
REMARK INTRA:                  -0.028
REMARK UNBOUND:                -0.023
REMARK  Name = opt14.pdb
REMARK  3 active torsions:
REMARK  status: ('A' for Active; 'I' for Inactive)
REMARK    1  A    between atoms: O_1  and  C_2
REMARK    2  A    between atoms: O_1  and  C_3
REMARK    3  A    between atoms: C_8  and  O_9
REMARK                            x       y       z     vdW  Elec       q    Type
REMARK                         _______ _______ _______ _____ _____    ______ ____
ROOT
ATOM      1  C   UNL     1      15.143  13.309  43.532  0.00  0.00    +0.000 A 
ATOM      2  C   UNL     1      14.346  12.467  42.747  0.00  0.00    +0.000 A 
ATOM      3  C   UNL     1      14.563  14.031  44.574  0.00  0.00    +0.000 A 
ATOM      4  C   UNL     1      12.981  12.356  43.008  0.00  0.00    +0.000 A 
ATOM      5  C   UNL     1      13.199  13.920  44.834  0.00  0.00    +0.000 A 
ATOM      6  C   UNL     1      12.407  13.083  44.051  0.00  0.00    +0.000 A 
ENDROOT
BRANCH   1   7
ATOM      7  O   UNL     1      16.501  13.462  43.316  0.00  0.00    +0.000 OA
ATOM      8  C   UNL     1      17.354  14.266  44.164  0.00  0.00    +0.000 C 
ENDBRANCH   1   7
BRANCH   6   9
ATOM      9  O   UNL     1      11.072  12.979  44.306  0.00  0.00    +0.000 OA
ATOM     10  H   UNL     1      10.885  13.240  45.225  0.00  0.00    +0.000 HD
ENDBRANCH   6   9
TORSDOF 2
ENDMDL
MODEL 9
REMARK VINA RESULT:    -3.468      2.270      3.055
REMARK INTER + INTRA:          -3.795
REMARK INTER:                  -3.773
REMARK INTRA:                  -0.022
REMARK UNBOUND:                -0.023
REMARK  Name = opt14.pdb
REMARK  3 active torsions:
REMARK  status: ('A' for Active; 'I' for Inactive)
REMARK    1  A    between atoms: O_1  and  C_2
REMARK    2  A    between atoms: O_1  and  C_3
REMARK    3  A    between atoms: C_8  and  O_9
REMARK                            x       y       z     vdW  Elec       q    Type
REMARK                         _______ _______ _______ _____ _____    ______ ____
ROOT
ATOM      1  C   UNL     1      13.907  13.048  44.344  0.00  0.00    +0.000 A 
ATOM      2  C   UNL     1      14.604  13.069  43.130  0.00  0.00    +0.000 A 
ATOM      3  C   UNL     1      14.528  13.513  45.502  0.00  0.00    +0.000 A 
ATOM      4  C   UNL     1      15.912  13.550  43.085  0.00  0.00    +0.000 A 
ATOM      5  C   UNL     1      15.835  13.993  45.456  0.00  0.00    +0.000 A 
ATOM      6  C   UNL     1      16.528  14.012  44.248  0.00  0.00    +0.000 A 
ENDROOT
BRANCH   1   7
ATOM      7  O   UNL     1      12.611  12.578  44.449  0.00  0.00    +0.000 OA
ATOM      8  C   UNL     1      11.687  12.538  43.336  0.00  0.00    +0.000 C 
ENDBRANCH   1   7
BRANCH   6   9
ATOM      9  O   UNL     1      17.808  14.480  44.207  0.00  0.00    +0.000 OA
ATOM     10  H   UNL     1      17.963  15.097  44.945  0.00  0.00    +0.000 HD
ENDBRANCH   6   9
TORSDOF 2
ENDMDL
MODEL 10
REMARK VINA RESULT:    -3.448      2.129      3.210
REMARK INTER + INTRA:          -3.774
REMARK INTER:                  -3.746
REMARK INTRA:                  -0.028
REMARK UNBOUND:                -0.023
REMARK  Name = opt14.pdb
REMARK  3 active torsions:
REMARK  status: ('A' for Active; 'I' for Inactive)
REMARK    1  A    between atoms: O_1  and  C_2
REMARK    2  A    between atoms: O_1  and  C_3
REMARK    3  A    between atoms: C_8  and  O_9
REMARK                            x       y       z     vdW  Elec       q    Type
REMARK                         _______ _______ _______ _____ _____    ______ ____
ROOT
ATOM      1  C   UNL     1      14.916  14.918  44.865  0.00  0.00    +0.000 A 
ATOM      2  C   UNL     1      13.875  15.769  44.475  0.00  0.00    +0.000 A 
ATOM      3  C   UNL     1      14.641  13.583  45.160  0.00  0.00    +0.000 A 
ATOM      4  C   UNL     1      12.572  15.281  44.386  0.00  0.00    +0.000 A 
ATOM      5  C   UNL     1      13.339  13.097  45.071  0.00  0.00    +0.000 A 
ATOM      6  C   UNL     1      12.303  13.945  44.685  0.00  0.00    +0.000 A 
ENDROOT
BRANCH   1   7
ATOM      7  O   UNL     1      16.226  15.347  44.975  0.00  0.00    +0.000 OA
ATOM      8  C   UNL     1      17.347  14.447  45.136  0.00  0.00    +0.000 C 
ENDBRANCH   1   7
BRANCH   6   9
ATOM      9  O   UNL     1      11.030  13.466  44.602  0.00  0.00    +0.000 OA
ATOM     10  H   UNL     1      10.475  13.866  45.296  0.00  0.00    +0.000 HD
ENDBRANCH   6   9
TORSDOF 2
ENDMDL
MODEL 11
REMARK VINA RESULT:    -3.441      2.371      3.228
REMARK INTER + INTRA:          -3.766
REMARK INTER:                  -3.750
REMARK INTRA:                  -0.016
REMARK UNBOUND:                -0.023
REMARK  Name = opt14.pdb
REMARK  3 active torsions:
REMARK  status: ('A' for Active; 'I' for Inactive)
REMARK    1  A    between atoms: O_1  and  C_2
REMARK    2  A    between atoms: O_1  and  C_3
REMARK    3  A    between atoms: C_8  and  O_9
REMARK                            x       y       z     vdW  Elec       q    Type
REMARK                         _______ _______ _______ _____ _____    ______ ____
ROOT
ATOM      1  C   UNL     1      16.197  13.719  43.835  0.00  0.00    +0.000 A 
ATOM      2  C   UNL     1      15.608  13.746  45.105  0.00  0.00    +0.000 A 
ATOM      3  C   UNL     1      15.452  13.284  42.740  0.00  0.00    +0.000 A 
ATOM      4  C   UNL     1      14.285  13.338  45.269  0.00  0.00    +0.000 A 
ATOM      5  C   UNL     1      14.130  12.877  42.905  0.00  0.00    +0.000 A 
ATOM      6  C   UNL     1      13.546  12.902  44.169  0.00  0.00    +0.000 A 
ENDROOT
BRANCH   1   7
ATOM      7  O   UNL     1      17.505  14.107  43.614  0.00  0.00    +0.000 OA
ATOM      8  C   UNL     1      17.928  15.491  43.573  0.00  0.00    +0.000 C 
ENDBRANCH   1   7
BRANCH   6   9
ATOM      9  O   UNL     1      12.253  12.500  44.327  0.00  0.00    +0.000 OA
ATOM     10  H   UNL     1      11.648  13.147  43.923  0.00  0.00    +0.000 HD
ENDBRANCH   6   9
TORSDOF 2
ENDMDL
MODEL 12
REMARK VINA RESULT:    -3.434      2.106      2.614
REMARK INTER + INTRA:          -3.758
REMARK INTER:                  -3.739
REMARK INTRA:                  -0.019
REMARK UNBOUND:                -0.023
REMARK  Name = opt14.pdb
REMARK  3 active torsions:
REMARK  status: ('A' for Active; 'I' for Inactive)
REMARK    1  A    between atoms: O_1  and  C_2
REMARK    2  A    between atoms: O_1  and  C_3
REMARK    3  A    between atoms: C_8  and  O_9
REMARK                            x       y       z     vdW  Elec       q    Type
REMARK                         _______ _______ _______ _____ _____    ______ ____
ROOT
ATOM      1  C   UNL     1      12.513  13.335  44.254  0.00  0.00    +0.000 A 
ATOM      2  C   UNL     1      12.994  12.346  43.388  0.00  0.00    +0.000 A 
ATOM      3  C   UNL     1      13.368  14.348  44.685  0.00  0.00    +0.000 A 
ATOM      4  C   UNL     1      14.322  12.376  42.965  0.00  0.00    +0.000 A 
ATOM      5  C   UNL     1      14.695  14.377  44.262  0.00  0.00    +0.000 A 
ATOM      6  C   UNL     1      15.173  13.391  43.402  0.00  0.00    +0.000 A 
ENDROOT
BRANCH   1   7
ATOM      7  O   UNL     1      11.207  13.353  44.710  0.00  0.00    +0.000 OA
ATOM      8  C   UNL     1      10.059  13.233  43.838  0.00  0.00    +0.000 C 
ENDBRANCH   1   7
BRANCH   6   9
ATOM      9  O   UNL     1      16.473  13.420  42.992  0.00  0.00    +0.000 OA
ATOM     10  H   UNL     1      16.567  12.957  42.140  0.00  0.00    +0.000 HD
ENDBRANCH   6   9
TORSDOF 2
ENDMDL
MODEL 13
REMARK VINA RESULT:    -3.401      2.110      2.789
REMARK INTER + INTRA:          -3.722
REMARK INTER:                  -3.701
REMARK INTRA:                  -0.020
REMARK UNBOUND:                -0.023
REMARK  Name = opt14.pdb
REMARK  3 active torsions:
REMARK  status: ('A' for Active; 'I' for Inactive)
REMARK    1  A    between atoms: O_1  and  C_2
REMARK    2  A    between atoms: O_1  and  C_3
REMARK    3  A    between atoms: C_8  and  O_9
REMARK                            x       y       z     vdW  Elec       q    Type
REMARK                         _______ _______ _______ _____ _____    ______ ____
ROOT
ATOM      1  C   UNL     1      12.534  13.413  44.249  0.00  0.00    +0.000 A 
ATOM      2  C   UNL     1      13.406  14.438  44.638  0.00  0.00    +0.000 A 
ATOM      3  C   UNL     1      12.994  12.400  43.409  0.00  0.00    +0.000 A 
ATOM      4  C   UNL     1      14.723  14.442  44.184  0.00  0.00    +0.000 A 
ATOM      5  C   UNL     1      14.311  12.406  42.956  0.00  0.00    +0.000 A 
ATOM      6  C   UNL     1      15.177  13.427  43.342  0.00  0.00    +0.000 A 
ENDROOT
BRANCH   1   7
ATOM      7  O   UNL     1      11.216  13.360  44.665  0.00  0.00    +0.000 OA
ATOM      8  C   UNL     1      10.095  13.329  43.751  0.00  0.00    +0.000 C 
ENDBRANCH   1   7
BRANCH   6   9
ATOM      9  O   UNL     1      16.464  13.431  42.894  0.00  0.00    +0.000 OA
ATOM     10  H   UNL     1      17.065  13.124  43.596  0.00  0.00    +0.000 HD
ENDBRANCH   6   9
TORSDOF 2
ENDMDL
MODEL 14
REMARK VINA RESULT:    -3.344      1.964      2.853
REMARK INTER + INTRA:          -3.660
REMARK INTER:                  -3.644
REMARK INTRA:                  -0.017
REMARK UNBOUND:                -0.023
REMARK  Name = opt14.pdb
REMARK  3 active torsions:
REMARK  status: ('A' for Active; 'I' for Inactive)
REMARK    1  A    between atoms: O_1  and  C_2
REMARK    2  A    between atoms: O_1  and  C_3
REMARK    3  A    between atoms: C_8  and  O_9
REMARK                            x       y       z     vdW  Elec       q    Type
REMARK                         _______ _______ _______ _____ _____    ______ ____
ROOT
ATOM      1  C   UNL     1      12.570  13.668  44.613  0.00  0.00    +0.000 A 
ATOM      2  C   UNL     1      13.046  14.984  44.609  0.00  0.00    +0.000 A 
ATOM      3  C   UNL     1      13.475  12.608  44.641  0.00  0.00    +0.000 A 
ATOM      4  C   UNL     1      14.418  15.230  44.629  0.00  0.00    +0.000 A 
ATOM      5  C   UNL     1      14.846  12.854  44.661  0.00  0.00    +0.000 A 
ATOM      6  C   UNL     1      15.319  14.165  44.654  0.00  0.00    +0.000 A 
ENDROOT
BRANCH   1   7
ATOM      7  O   UNL     1      11.220  13.365  44.589  0.00  0.00    +0.000 OA
ATOM      8  C   UNL     1      10.495  13.065  43.374  0.00  0.00    +0.000 C 
ENDBRANCH   1   7
BRANCH   6   9
ATOM      9  O   UNL     1      16.661  14.402  44.671  0.00  0.00    +0.000 OA
ATOM     10  H   UNL     1      17.096  13.923  43.942  0.00  0.00    +0.000 HD
ENDBRANCH   6   9
TORSDOF 2
ENDMDL
MODEL 15
REMARK VINA RESULT:    -3.315      2.175      3.453
REMARK INTER + INTRA:          -3.629
REMARK INTER:                  -3.609
REMARK INTRA:                  -0.020
REMARK UNBOUND:                -0.023
REMARK  Name = opt14.pdb
REMARK  3 active torsions:
REMARK  status: ('A' for Active; 'I' for Inactive)
REMARK    1  A    between atoms: O_1  and  C_2
REMARK    2  A    between atoms: O_1  and  C_3
REMARK    3  A    between atoms: C_8  and  O_9
REMARK                            x       y       z     vdW  Elec       q    Type
REMARK                         _______ _______ _______ _____ _____    ______ ____
ROOT
ATOM      1  C   UNL     1      15.133  13.429  43.315  0.00  0.00    +0.000 A 
ATOM      2  C   UNL     1      14.627  14.280  44.304  0.00  0.00    +0.000 A 
ATOM      3  C   UNL     1      14.285  12.514  42.694  0.00  0.00    +0.000 A 
ATOM      4  C   UNL     1      13.283  14.207  44.666  0.00  0.00    +0.000 A 
ATOM      5  C   UNL     1      12.942  12.442  43.056  0.00  0.00    +0.000 A 
ATOM      6  C   UNL     1      12.440  13.288  44.043  0.00  0.00    +0.000 A 
ENDROOT
BRANCH   1   7
ATOM      7  O   UNL     1      16.458  13.454  42.919  0.00  0.00    +0.000 OA
ATOM      8  C   UNL     1      17.205  14.677  42.718  0.00  0.00    +0.000 C 
ENDBRANCH   1   7
BRANCH   6   9
ATOM      9  O   UNL     1      11.125  13.212  44.397  0.00  0.00    +0.000 OA
ATOM     10  H   UNL     1      10.919  13.887  45.068  0.00  0.00    +0.000 HD
ENDBRANCH   6   9
TORSDOF 2
ENDMDL
MODEL 16
REMARK VINA RESULT:    -3.268      2.178      3.685
REMARK INTER + INTRA:          -3.578
REMARK INTER:                  -3.556
REMARK INTRA:                  -0.022
REMARK UNBOUND:                -0.023
REMARK  Name = opt14.pdb
REMARK  3 active torsions:
REMARK  status: ('A' for Active; 'I' for Inactive)
REMARK    1  A    between atoms: O_1  and  C_2
REMARK    2  A    between atoms: O_1  and  C_3
REMARK    3  A    between atoms: C_8  and  O_9
REMARK                            x       y       z     vdW  Elec       q    Type
REMARK                         _______ _______ _______ _____ _____    ______ ____
ROOT
ATOM      1  C   UNL     1      11.896  14.335  44.682  0.00  0.00    +0.000 A 
ATOM      2  C   UNL     1      11.728  15.724  44.624  0.00  0.00    +0.000 A 
ATOM      3  C   UNL     1      13.181  13.799  44.757  0.00  0.00    +0.000 A 
ATOM      4  C   UNL     1      12.842  16.562  44.639  0.00  0.00    +0.000 A 
ATOM      5  C   UNL     1      14.293  14.638  44.773  0.00  0.00    +0.000 A 
ATOM      6  C   UNL     1      14.125  16.019  44.713  0.00  0.00    +0.000 A 
ENDROOT
BRANCH   1   7
ATOM      7  O   UNL     1      10.829  13.456  44.665  0.00  0.00    +0.000 OA
ATOM      8  C   UNL     1       9.530  13.792  44.122  0.00  0.00    +0.000 C 
ENDBRANCH   1   7
BRANCH   6   9
ATOM      9  O   UNL     1      15.216  16.836  44.725  0.00  0.00    +0.000 OA
ATOM     10  H   UNL     1      15.666  16.783  45.588  0.00  0.00    +0.000 HD
ENDBRANCH   6   9
TORSDOF 2
ENDMDL
MODEL 17
REMARK VINA RESULT:    -3.249      1.922      3.057
REMARK INTER + INTRA:          -3.557
REMARK INTER:                  -3.535
REMARK INTRA:                  -0.022
REMARK UNBOUND:                -0.023
REMARK  Name = opt14.pdb
REMARK  3 active torsions:
REMARK  status: ('A' for Active; 'I' for Inactive)
REMARK    1  A    between atoms: O_1  and  C_2
REMARK    2  A    between atoms: O_1  and  C_3
REMARK    3  A    between atoms: C_8  and  O_9
REMARK                            x       y       z     vdW  Elec       q    Type
REMARK                         _______ _______ _______ _____ _____    ______ ____
ROOT
ATOM      1  C   UNL     1      15.422  14.525  44.584  0.00  0.00    +0.000 A 
ATOM      2  C   UNL     1      15.355  13.130  44.681  0.00  0.00    +0.000 A 
ATOM      3  C   UNL     1      14.259  15.255  44.342  0.00  0.00    +0.000 A 
ATOM      4  C   UNL     1      14.131  12.479  44.533  0.00  0.00    +0.000 A 
ATOM      5  C   UNL     1      13.037  14.603  44.194  0.00  0.00    +0.000 A 
ATOM      6  C   UNL     1      12.972  13.215  44.289  0.00  0.00    +0.000 A 
ENDROOT
BRANCH   1   7
ATOM      7  O   UNL     1      16.608  15.224  44.718  0.00  0.00    +0.000 OA
ATOM      8  C   UNL     1      17.912  14.604  44.617  0.00  0.00    +0.000 C 
ENDBRANCH   1   7
BRANCH   6   9
ATOM      9  O   UNL     1      11.775  12.580  44.141  0.00  0.00    +0.000 OA
ATOM     10  H   UNL     1      11.560  12.486  43.195  0.00  0.00    +0.000 HD
ENDBRANCH   6   9
TORSDOF 2
ENDMDL
MODEL 18
REMARK VINA RESULT:    -3.180      2.340      3.257
REMARK INTER + INTRA:          -3.482
REMARK INTER:                  -3.461
REMARK INTRA:                  -0.021
REMARK UNBOUND:                -0.023
REMARK  Name = opt14.pdb
REMARK  3 active torsions:
REMARK  status: ('A' for Active; 'I' for Inactive)
REMARK    1  A    between atoms: O_1  and  C_2
REMARK    2  A    between atoms: O_1  and  C_3
REMARK    3  A    between atoms: C_8  and  O_9
REMARK                            x       y       z     vdW  Elec       q    Type
REMARK                         _______ _______ _______ _____ _____    ______ ____
ROOT
ATOM      1  C   UNL     1      14.390  13.437  44.633  0.00  0.00    +0.000 A 
ATOM      2  C   UNL     1      14.303  14.403  43.624  0.00  0.00    +0.000 A 
ATOM      3  C   UNL     1      13.592  12.296  44.565  0.00  0.00    +0.000 A 
ATOM      4  C   UNL     1      13.420  14.222  42.560  0.00  0.00    +0.000 A 
ATOM      5  C   UNL     1      12.711  12.116  43.501  0.00  0.00    +0.000 A 
ATOM      6  C   UNL     1      12.624  13.079  42.498  0.00  0.00    +0.000 A 
ENDROOT
BRANCH   1   7
ATOM      7  O   UNL     1      15.243  13.565  45.714  0.00  0.00    +0.000 OA
ATOM      8  C   UNL     1      16.547  14.186  45.628  0.00  0.00    +0.000 C 
ENDBRANCH   1   7
BRANCH   6   9
ATOM      9  O   UNL     1      11.758  12.901  41.461  0.00  0.00    +0.000 OA
ATOM     10  H   UNL     1      11.617  13.743  40.992  0.00  0.00    +0.000 HD
ENDBRANCH   6   9
TORSDOF 2
ENDMDL
