MODEL 1
REMARK VINA RESULT:    -6.814      0.000      0.000
REMARK INTER + INTRA:         -10.632
REMARK INTER:                  -9.602
REMARK INTRA:                  -1.030
REMARK UNBOUND:                -1.030
REMARK  Name = opt62.pdb
REMARK  10 active torsions:
REMARK  status: ('A' for Active; 'I' for Inactive)
REMARK    1  A    between atoms: C_6  and  O_10
REMARK    2  A    between atoms: C_7  and  C_12
REMARK    3  A    between atoms: C_13  and  O_16
REMARK    4  A    between atoms: O_16  and  C_19
REMARK    5  A    between atoms: C_20  and  O_23
REMARK    6  A    between atoms: C_22  and  O_25
REMARK    7  A    between atoms: C_24  and  C_28
REMARK    8  A    between atoms: C_26  and  O_29
REMARK    9  A    between atoms: C_27  and  O_30
REMARK   10  A    between atoms: C_28  and  O_31
REMARK                            x       y       z     vdW  Elec       q    Type
REMARK                         _______ _______ _______ _____ _____    ______ ____
ROOT
ATOM      1  O   UNL     1      19.053  14.289  44.649  0.00  0.00    +0.000 OA
ATOM      2  C   UNL     1      18.286  14.597  43.755  0.00  0.00    +0.000 A 
ATOM      3  C   UNL     1      16.817  14.524  43.856  0.00  0.00    +0.000 A 
ATOM      4  C   UNL     1      18.739  15.065  42.425  0.00  0.00    +0.000 A 
ATOM      5  C   UNL     1      16.130  14.897  42.719  0.00  0.00    +0.000 A 
ATOM      6  C   UNL     1      16.056  14.087  45.006  0.00  0.00    +0.000 A 
ATOM      7  C   UNL     1      17.998  15.338  41.622  0.00  0.00    +0.000 A 
ATOM      8  O   UNL     1      16.873  15.304  41.612  0.00  0.00    +0.000 OA
ATOM      9  C   UNL     1      14.689  14.780  42.676  0.00  0.00    +0.000 A 
ATOM     10  C   UNL     1      14.672  13.997  44.956  0.00  0.00    +0.000 A 
ATOM     11  C   UNL     1      13.984  14.325  43.798  0.00  0.00    +0.000 A 
ENDROOT
BRANCH   7  12
ATOM     12  C   UNL     1      18.609  16.094  40.476  0.00  0.00    +0.000 A 
ATOM     13  C   UNL     1      18.710  17.496  40.523  0.00  0.00    +0.000 A 
ATOM     14  C   UNL     1      19.030  15.422  39.314  0.00  0.00    +0.000 A 
ATOM     15  C   UNL     1      19.229  18.204  39.439  0.00  0.00    +0.000 A 
ATOM     16  C   UNL     1      19.545  16.140  38.234  0.00  0.00    +0.000 A 
ATOM     17  C   UNL     1      19.650  17.528  38.294  0.00  0.00    +0.000 A 
BRANCH  17  18
ATOM     18  O   UNL     1      20.159  18.212  37.226  0.00  0.00    +0.000 OA
ATOM     19  H   UNL     1      20.784  17.664  36.713  0.00  0.00    +0.000 HD
ENDBRANCH  17  18
ENDBRANCH   7  12
BRANCH   6  20
ATOM     20  O   UNL     1      16.676  13.723  46.160  0.00  0.00    +0.000 OA
ATOM     21  H   UNL     1      17.425  14.336  46.280  0.00  0.00    +0.000 HD
ENDBRANCH   6  20
BRANCH  11  22
ATOM     22  O   UNL     1      12.614  14.134  43.833  0.00  0.00    +0.000 OA
BRANCH  22  23
ATOM     23  C   UNL     1      11.963  12.894  44.178  0.00  0.00    +0.000 C 
ATOM     24  O   UNL     1      10.596  13.125  44.607  0.00  0.00    +0.000 OA
ATOM     25  C   UNL     1      11.977  11.987  42.924  0.00  0.00    +0.000 C 
ATOM     26  C   UNL     1       9.719  13.769  43.648  0.00  0.00    +0.000 C 
ATOM     27  C   UNL     1      11.003  12.516  41.830  0.00  0.00    +0.000 C 
ATOM     28  C   UNL     1       9.606  12.859  42.398  0.00  0.00    +0.000 C 
BRANCH  28  29
ATOM     29  O   UNL     1       8.848  13.503  41.362  0.00  0.00    +0.000 OA
ATOM     30  H   UNL     1       8.963  14.474  41.431  0.00  0.00    +0.000 HD
ENDBRANCH  28  29
BRANCH  25  31
ATOM     31  O   UNL     1      11.643  10.654  43.314  0.00  0.00    +0.000 OA
ATOM     32  H   UNL     1      10.877  10.384  42.787  0.00  0.00    +0.000 HD
ENDBRANCH  25  31
BRANCH  27  33
ATOM     33  O   UNL     1      10.823  11.549  40.785  0.00  0.00    +0.000 OA
ATOM     34  H   UNL     1       9.887  11.252  40.803  0.00  0.00    +0.000 HD
ENDBRANCH  27  33
BRANCH  26  35
ATOM     35  C   UNL     1       8.371  13.979  44.370  0.00  0.00    +0.000 C 
BRANCH  35  36
ATOM     36  O   UNL     1       7.392  13.050  43.905  0.00  0.00    +0.000 OA
ATOM     37  H   UNL     1       7.791  12.156  43.971  0.00  0.00    +0.000 HD
ENDBRANCH  35  36
ENDBRANCH  26  35
ENDBRANCH  22  23
ENDBRANCH  11  22
TORSDOF 10
ENDMDL
MODEL 2
REMARK VINA RESULT:    -6.649      4.081      5.487
REMARK INTER + INTRA:         -10.400
REMARK INTER:                  -9.383
REMARK INTRA:                  -1.017
REMARK UNBOUND:                -1.030
REMARK  Name = opt62.pdb
REMARK  10 active torsions:
REMARK  status: ('A' for Active; 'I' for Inactive)
REMARK    1  A    between atoms: C_6  and  O_10
REMARK    2  A    between atoms: C_7  and  C_12
REMARK    3  A    between atoms: C_13  and  O_16
REMARK    4  A    between atoms: O_16  and  C_19
REMARK    5  A    between atoms: C_20  and  O_23
REMARK    6  A    between atoms: C_22  and  O_25
REMARK    7  A    between atoms: C_24  and  C_28
REMARK    8  A    between atoms: C_26  and  O_29
REMARK    9  A    between atoms: C_27  and  O_30
REMARK   10  A    between atoms: C_28  and  O_31
REMARK                            x       y       z     vdW  Elec       q    Type
REMARK                         _______ _______ _______ _____ _____    ______ ____
ROOT
ATOM      1  O   UNL     1      14.932  11.733  44.394  0.00  0.00    +0.000 OA
ATOM      2  C   UNL     1      14.339  12.781  44.217  0.00  0.00    +0.000 A 
ATOM      3  C   UNL     1      12.957  12.881  43.715  0.00  0.00    +0.000 A 
ATOM      4  C   UNL     1      14.950  14.108  44.462  0.00  0.00    +0.000 A 
ATOM      5  C   UNL     1      12.478  14.168  43.563  0.00  0.00    +0.000 A 
ATOM      6  C   UNL     1      12.090  11.779  43.358  0.00  0.00    +0.000 A 
ATOM      7  C   UNL     1      14.370  15.057  44.283  0.00  0.00    +0.000 A 
ATOM      8  O   UNL     1      13.325  15.223  43.897  0.00  0.00    +0.000 OA
ATOM      9  C   UNL     1      11.166  14.386  42.994  0.00  0.00    +0.000 A 
ATOM     10  C   UNL     1      10.827  12.005  42.830  0.00  0.00    +0.000 A 
ATOM     11  C   UNL     1      10.363  13.296  42.632  0.00  0.00    +0.000 A 
ENDROOT
BRANCH   7  12
ATOM     12  C   UNL     1      15.012  16.274  44.885  0.00  0.00    +0.000 A 
ATOM     13  C   UNL     1      16.332  16.215  45.367  0.00  0.00    +0.000 A 
ATOM     14  C   UNL     1      14.287  17.470  45.036  0.00  0.00    +0.000 A 
ATOM     15  C   UNL     1      16.913  17.329  45.974  0.00  0.00    +0.000 A 
ATOM     16  C   UNL     1      14.877  18.577  45.648  0.00  0.00    +0.000 A 
ATOM     17  C   UNL     1      16.189  18.512  46.113  0.00  0.00    +0.000 A 
BRANCH  17  18
ATOM     18  O   UNL     1      16.748  19.608  46.708  0.00  0.00    +0.000 OA
ATOM     19  H   UNL     1      16.932  19.449  47.654  0.00  0.00    +0.000 HD
ENDBRANCH  17  18
ENDBRANCH   7  12
BRANCH   6  20
ATOM     20  O   UNL     1      12.500  10.491  43.503  0.00  0.00    +0.000 OA
ATOM     21  H   UNL     1      12.269  10.224  44.411  0.00  0.00    +0.000 HD
ENDBRANCH   6  20
BRANCH  11  22
ATOM     22  O   UNL     1       9.120  13.409  42.037  0.00  0.00    +0.000 OA
BRANCH  22  23
ATOM     23  C   UNL     1       7.860  13.246  42.721  0.00  0.00    +0.000 C 
ATOM     24  O   UNL     1       7.216  14.528  42.939  0.00  0.00    +0.000 OA
ATOM     25  C   UNL     1       6.958  12.344  41.845  0.00  0.00    +0.000 C 
ATOM     26  C   UNL     1       6.915  15.308  41.754  0.00  0.00    +0.000 C 
ATOM     27  C   UNL     1       6.483  13.091  40.563  0.00  0.00    +0.000 C 
ATOM     28  C   UNL     1       5.928  14.500  40.872  0.00  0.00    +0.000 C 
BRANCH  28  29
ATOM     29  O   UNL     1       5.690  15.171  39.625  0.00  0.00    +0.000 OA
ATOM     30  H   UNL     1       5.421  14.514  38.949  0.00  0.00    +0.000 HD
ENDBRANCH  28  29
BRANCH  25  31
ATOM     31  O   UNL     1       5.849  11.900  42.627  0.00  0.00    +0.000 OA
ATOM     32  H   UNL     1       5.516  11.088  42.219  0.00  0.00    +0.000 HD
ENDBRANCH  25  31
BRANCH  27  33
ATOM     33  O   UNL     1       5.452  12.356  39.887  0.00  0.00    +0.000 OA
ATOM     34  H   UNL     1       5.346  12.738  38.988  0.00  0.00    +0.000 HD
ENDBRANCH  27  33
BRANCH  26  35
ATOM     35  C   UNL     1       6.328  16.645  42.255  0.00  0.00    +0.000 C 
BRANCH  35  36
ATOM     36  O   UNL     1       6.308  17.618  41.211  0.00  0.00    +0.000 OA
ATOM     37  H   UNL     1       5.857  18.412  41.567  0.00  0.00    +0.000 HD
ENDBRANCH  35  36
ENDBRANCH  26  35
ENDBRANCH  22  23
ENDBRANCH  11  22
TORSDOF 10
ENDMDL
MODEL 3
REMARK VINA RESULT:    -6.452      1.445      2.121
REMARK INTER + INTRA:         -10.122
REMARK INTER:                  -9.168
REMARK INTRA:                  -0.954
REMARK UNBOUND:                -1.030
REMARK  Name = opt62.pdb
REMARK  10 active torsions:
REMARK  status: ('A' for Active; 'I' for Inactive)
REMARK    1  A    between atoms: C_6  and  O_10
REMARK    2  A    between atoms: C_7  and  C_12
REMARK    3  A    between atoms: C_13  and  O_16
REMARK    4  A    between atoms: O_16  and  C_19
REMARK    5  A    between atoms: C_20  and  O_23
REMARK    6  A    between atoms: C_22  and  O_25
REMARK    7  A    between atoms: C_24  and  C_28
REMARK    8  A    between atoms: C_26  and  O_29
REMARK    9  A    between atoms: C_27  and  O_30
REMARK   10  A    between atoms: C_28  and  O_31
REMARK                            x       y       z     vdW  Elec       q    Type
REMARK                         _______ _______ _______ _____ _____    ______ ____
ROOT
ATOM      1  O   UNL     1      18.915  14.370  45.148  0.00  0.00    +0.000 OA
ATOM      2  C   UNL     1      18.214  14.447  44.156  0.00  0.00    +0.000 A 
ATOM      3  C   UNL     1      16.772  14.140  44.129  0.00  0.00    +0.000 A 
ATOM      4  C   UNL     1      18.734  14.841  42.827  0.00  0.00    +0.000 A 
ATOM      5  C   UNL     1      16.167  14.270  42.895  0.00  0.00    +0.000 A 
ATOM      6  C   UNL     1      15.965  13.706  45.249  0.00  0.00    +0.000 A 
ATOM      7  C   UNL     1      18.053  14.899  41.930  0.00  0.00    +0.000 A 
ATOM      8  O   UNL     1      16.955  14.676  41.820  0.00  0.00    +0.000 OA
ATOM      9  C   UNL     1      14.775  13.909  42.734  0.00  0.00    +0.000 A 
ATOM     10  C   UNL     1      14.627  13.381  45.081  0.00  0.00    +0.000 A 
ATOM     11  C   UNL     1      14.029  13.464  43.833  0.00  0.00    +0.000 A 
ENDROOT
BRANCH   7  12
ATOM     12  C   UNL     1      18.663  15.620  40.762  0.00  0.00    +0.000 A 
ATOM     13  C   UNL     1      19.146  16.933  40.910  0.00  0.00    +0.000 A 
ATOM     14  C   UNL     1      18.703  15.023  39.489  0.00  0.00    +0.000 A 
ATOM     15  C   UNL     1      19.665  17.623  39.815  0.00  0.00    +0.000 A 
ATOM     16  C   UNL     1      19.221  15.724  38.399  0.00  0.00    +0.000 A 
ATOM     17  C   UNL     1      19.707  17.020  38.559  0.00  0.00    +0.000 A 
BRANCH  17  18
ATOM     18  O   UNL     1      20.212  17.688  37.479  0.00  0.00    +0.000 OA
ATOM     19  H   UNL     1      21.115  18.018  37.651  0.00  0.00    +0.000 HD
ENDBRANCH  17  18
ENDBRANCH   7  12
BRANCH   6  20
ATOM     20  O   UNL     1      16.502  13.577  46.490  0.00  0.00    +0.000 OA
ATOM     21  H   UNL     1      17.431  13.867  46.426  0.00  0.00    +0.000 HD
ENDBRANCH   6  20
BRANCH  11  22
ATOM     22  O   UNL     1      12.711  13.051  43.765  0.00  0.00    +0.000 OA
BRANCH  22  23
ATOM     23  C   UNL     1      11.593  13.761  44.338  0.00  0.00    +0.000 C 
ATOM     24  O   UNL     1      11.651  15.175  44.013  0.00  0.00    +0.000 OA
ATOM     25  C   UNL     1      10.295  13.140  43.766  0.00  0.00    +0.000 C 
ATOM     26  C   UNL     1      11.643  15.513  42.603  0.00  0.00    +0.000 C 
ATOM     27  C   UNL     1      10.109  13.500  42.262  0.00  0.00    +0.000 C 
ATOM     28  C   UNL     1      10.314  15.007  41.984  0.00  0.00    +0.000 C 
BRANCH  28  29
ATOM     29  O   UNL     1      10.304  15.205  40.562  0.00  0.00    +0.000 OA
ATOM     30  H   UNL     1      10.396  16.161  40.366  0.00  0.00    +0.000 HD
ENDBRANCH  28  29
BRANCH  25  31
ATOM     31  O   UNL     1       9.186  13.589  44.547  0.00  0.00    +0.000 OA
ATOM     32  H   UNL     1       8.419  13.060  44.286  0.00  0.00    +0.000 HD
ENDBRANCH  25  31
BRANCH  27  33
ATOM     33  O   UNL     1       8.796  13.147  41.803  0.00  0.00    +0.000 OA
ATOM     34  H   UNL     1       8.140  13.591  42.386  0.00  0.00    +0.000 HD
ENDBRANCH  27  33
BRANCH  26  35
ATOM     35  C   UNL     1      11.802  17.046  42.527  0.00  0.00    +0.000 C 
BRANCH  35  36
ATOM     36  O   UNL     1      12.289  17.447  41.246  0.00  0.00    +0.000 OA
ATOM     37  H   UNL     1      12.000  18.372  41.105  0.00  0.00    +0.000 HD
ENDBRANCH  35  36
ENDBRANCH  26  35
ENDBRANCH  22  23
ENDBRANCH  11  22
TORSDOF 10
ENDMDL
MODEL 4
REMARK VINA RESULT:    -6.322      3.546      5.045
REMARK INTER + INTRA:          -9.939
REMARK INTER:                  -9.150
REMARK INTRA:                  -0.790
REMARK UNBOUND:                -1.030
REMARK  Name = opt62.pdb
REMARK  10 active torsions:
REMARK  status: ('A' for Active; 'I' for Inactive)
REMARK    1  A    between atoms: C_6  and  O_10
REMARK    2  A    between atoms: C_7  and  C_12
REMARK    3  A    between atoms: C_13  and  O_16
REMARK    4  A    between atoms: O_16  and  C_19
REMARK    5  A    between atoms: C_20  and  O_23
REMARK    6  A    between atoms: C_22  and  O_25
REMARK    7  A    between atoms: C_24  and  C_28
REMARK    8  A    between atoms: C_26  and  O_29
REMARK    9  A    between atoms: C_27  and  O_30
REMARK   10  A    between atoms: C_28  and  O_31
REMARK                            x       y       z     vdW  Elec       q    Type
REMARK                         _______ _______ _______ _____ _____    ______ ____
ROOT
ATOM      1  O   UNL     1      16.546  13.441  43.410  0.00  0.00    +0.000 OA
ATOM      2  C   UNL     1      15.636  14.189  43.721  0.00  0.00    +0.000 A 
ATOM      3  C   UNL     1      14.217  13.794  43.780  0.00  0.00    +0.000 A 
ATOM      4  C   UNL     1      15.842  15.616  44.060  0.00  0.00    +0.000 A 
ATOM      5  C   UNL     1      13.341  14.801  44.135  0.00  0.00    +0.000 A 
ATOM      6  C   UNL     1      13.677  12.484  43.488  0.00  0.00    +0.000 A 
ATOM      7  C   UNL     1      14.973  16.277  44.341  0.00  0.00    +0.000 A 
ATOM      8  O   UNL     1      13.870  16.062  44.402  0.00  0.00    +0.000 OA
ATOM      9  C   UNL     1      11.917  14.548  44.138  0.00  0.00    +0.000 A 
ATOM     10  C   UNL     1      12.309  12.253  43.513  0.00  0.00    +0.000 A 
ATOM     11  C   UNL     1      11.424  13.275  43.821  0.00  0.00    +0.000 A 
ENDROOT
BRANCH   7  12
ATOM     12  C   UNL     1      15.390  17.579  44.963  0.00  0.00    +0.000 A 
ATOM     13  C   UNL     1      14.811  18.788  44.537  0.00  0.00    +0.000 A 
ATOM     14  C   UNL     1      16.408  17.620  45.934  0.00  0.00    +0.000 A 
ATOM     15  C   UNL     1      15.233  20.003  45.076  0.00  0.00    +0.000 A 
ATOM     16  C   UNL     1      16.825  18.841  46.464  0.00  0.00    +0.000 A 
ATOM     17  C   UNL     1      16.238  20.032  46.043  0.00  0.00    +0.000 A 
BRANCH  17  18
ATOM     18  O   UNL     1      16.660  21.218  46.577  0.00  0.00    +0.000 OA
ATOM     19  H   UNL     1      16.495  21.964  45.969  0.00  0.00    +0.000 HD
ENDBRANCH  17  18
ENDBRANCH   7  12
BRANCH   6  20
ATOM     20  O   UNL     1      14.492  11.450  43.151  0.00  0.00    +0.000 OA
ATOM     21  H   UNL     1      13.914  10.724  42.850  0.00  0.00    +0.000 HD
ENDBRANCH   6  20
BRANCH  11  22
ATOM     22  O   UNL     1      10.081  12.955  43.751  0.00  0.00    +0.000 OA
BRANCH  22  23
ATOM     23  C   UNL     1       9.291  12.974  42.544  0.00  0.00    +0.000 C 
ATOM     24  O   UNL     1       8.362  11.858  42.511  0.00  0.00    +0.000 OA
ATOM     25  C   UNL     1       8.511  14.311  42.509  0.00  0.00    +0.000 C 
ATOM     26  C   UNL     1       7.407  11.783  43.599  0.00  0.00    +0.000 C 
ATOM     27  C   UNL     1       7.381  14.337  43.580  0.00  0.00    +0.000 C 
ATOM     28  C   UNL     1       6.519  13.053  43.561  0.00  0.00    +0.000 C 
BRANCH  28  29
ATOM     29  O   UNL     1       5.632  13.092  44.691  0.00  0.00    +0.000 OA
ATOM     30  H   UNL     1       4.927  13.753  44.528  0.00  0.00    +0.000 HD
ENDBRANCH  28  29
BRANCH  25  31
ATOM     31  O   UNL     1       7.985  14.504  41.196  0.00  0.00    +0.000 OA
ATOM     32  H   UNL     1       7.759  13.630  40.845  0.00  0.00    +0.000 HD
ENDBRANCH  25  31
BRANCH  27  33
ATOM     33  O   UNL     1       6.503  15.455  43.381  0.00  0.00    +0.000 OA
ATOM     34  H   UNL     1       6.540  15.704  42.431  0.00  0.00    +0.000 HD
ENDBRANCH  27  33
BRANCH  26  35
ATOM     35  C   UNL     1       6.610  10.479  43.383  0.00  0.00    +0.000 C 
BRANCH  35  36
ATOM     36  O   UNL     1       7.427   9.334  43.626  0.00  0.00    +0.000 OA
ATOM     37  H   UNL     1       7.267   9.058  44.553  0.00  0.00    +0.000 HD
ENDBRANCH  35  36
ENDBRANCH  26  35
ENDBRANCH  22  23
ENDBRANCH  11  22
TORSDOF 10
ENDMDL
MODEL 5
REMARK VINA RESULT:    -6.321      3.211      5.036
REMARK INTER + INTRA:          -9.938
REMARK INTER:                  -8.931
REMARK INTRA:                  -1.007
REMARK UNBOUND:                -1.030
REMARK  Name = opt62.pdb
REMARK  10 active torsions:
REMARK  status: ('A' for Active; 'I' for Inactive)
REMARK    1  A    between atoms: C_6  and  O_10
REMARK    2  A    between atoms: C_7  and  C_12
REMARK    3  A    between atoms: C_13  and  O_16
REMARK    4  A    between atoms: O_16  and  C_19
REMARK    5  A    between atoms: C_20  and  O_23
REMARK    6  A    between atoms: C_22  and  O_25
REMARK    7  A    between atoms: C_24  and  C_28
REMARK    8  A    between atoms: C_26  and  O_29
REMARK    9  A    between atoms: C_27  and  O_30
REMARK   10  A    between atoms: C_28  and  O_31
REMARK                            x       y       z     vdW  Elec       q    Type
REMARK                         _______ _______ _______ _____ _____    ______ ____
ROOT
ATOM      1  O   UNL     1      19.092  16.321  42.659  0.00  0.00    +0.000 OA
ATOM      2  C   UNL     1      18.248  16.414  43.532  0.00  0.00    +0.000 A 
ATOM      3  C   UNL     1      16.929  15.756  43.489  0.00  0.00    +0.000 A 
ATOM      4  C   UNL     1      18.433  17.232  44.753  0.00  0.00    +0.000 A 
ATOM      5  C   UNL     1      16.111  16.009  44.571  0.00  0.00    +0.000 A 
ATOM      6  C   UNL     1      16.426  14.909  42.430  0.00  0.00    +0.000 A 
ATOM      7  C   UNL     1      17.627  17.295  45.538  0.00  0.00    +0.000 A 
ATOM      8  O   UNL     1      16.599  16.837  45.580  0.00  0.00    +0.000 OA
ATOM      9  C   UNL     1      14.762  15.487  44.591  0.00  0.00    +0.000 A 
ATOM     10  C   UNL     1      15.136  14.401  42.473  0.00  0.00    +0.000 A 
ATOM     11  C   UNL     1      14.295  14.693  43.535  0.00  0.00    +0.000 A 
ENDROOT
BRANCH   7  12
ATOM     12  C   UNL     1      18.100  17.885  46.836  0.00  0.00    +0.000 A 
ATOM     13  C   UNL     1      17.202  18.068  47.902  0.00  0.00    +0.000 A 
ATOM     14  C   UNL     1      19.429  18.322  46.986  0.00  0.00    +0.000 A 
ATOM     15  C   UNL     1      17.627  18.663  49.090  0.00  0.00    +0.000 A 
ATOM     16  C   UNL     1      19.843  18.918  48.177  0.00  0.00    +0.000 A 
ATOM     17  C   UNL     1      18.948  19.087  49.231  0.00  0.00    +0.000 A 
BRANCH  17  18
ATOM     18  O   UNL     1      19.375  19.672  50.390  0.00  0.00    +0.000 OA
ATOM     19  H   UNL     1      18.763  19.492  51.130  0.00  0.00    +0.000 HD
ENDBRANCH  17  18
ENDBRANCH   7  12
BRANCH   6  20
ATOM     20  O   UNL     1      17.193  14.611  41.348  0.00  0.00    +0.000 OA
ATOM     21  H   UNL     1      18.090  14.942  41.539  0.00  0.00    +0.000 HD
ENDBRANCH   6  20
BRANCH  11  22
ATOM     22  O   UNL     1      13.009  14.193  43.445  0.00  0.00    +0.000 OA
BRANCH  22  23
ATOM     23  C   UNL     1      12.526  13.029  44.147  0.00  0.00    +0.000 C 
ATOM     24  O   UNL     1      11.169  13.232  44.622  0.00  0.00    +0.000 OA
ATOM     25  C   UNL     1      12.568  11.833  43.164  0.00  0.00    +0.000 C 
ATOM     26  C   UNL     1      10.169  13.519  43.612  0.00  0.00    +0.000 C 
ATOM     27  C   UNL     1      11.476  11.965  42.062  0.00  0.00    +0.000 C 
ATOM     28  C   UNL     1      10.086  12.309  42.646  0.00  0.00    +0.000 C 
BRANCH  28  29
ATOM     29  O   UNL     1       9.198  12.588  41.552  0.00  0.00    +0.000 OA
ATOM     30  H   UNL     1       9.167  13.555  41.396  0.00  0.00    +0.000 HD
ENDBRANCH  28  29
BRANCH  25  31
ATOM     31  O   UNL     1      12.413  10.622  43.905  0.00  0.00    +0.000 OA
ATOM     32  H   UNL     1      13.290  10.221  43.987  0.00  0.00    +0.000 HD
ENDBRANCH  25  31
BRANCH  27  33
ATOM     33  O   UNL     1      11.345  10.748  41.313  0.00  0.00    +0.000 OA
ATOM     34  H   UNL     1      11.037  10.979  40.409  0.00  0.00    +0.000 HD
ENDBRANCH  27  33
BRANCH  26  35
ATOM     35  C   UNL     1       8.851  13.780  44.373  0.00  0.00    +0.000 C 
BRANCH  35  36
ATOM     36  O   UNL     1       7.867  14.348  43.509  0.00  0.00    +0.000 OA
ATOM     37  H   UNL     1       7.085  14.557  44.063  0.00  0.00    +0.000 HD
ENDBRANCH  35  36
ENDBRANCH  26  35
ENDBRANCH  22  23
ENDBRANCH  11  22
TORSDOF 10
ENDMDL
MODEL 6
REMARK VINA RESULT:    -6.212      4.072      5.288
REMARK INTER + INTRA:          -9.785
REMARK INTER:                  -8.812
REMARK INTRA:                  -0.973
REMARK UNBOUND:                -1.030
REMARK  Name = opt62.pdb
REMARK  10 active torsions:
REMARK  status: ('A' for Active; 'I' for Inactive)
REMARK    1  A    between atoms: C_6  and  O_10
REMARK    2  A    between atoms: C_7  and  C_12
REMARK    3  A    between atoms: C_13  and  O_16
REMARK    4  A    between atoms: O_16  and  C_19
REMARK    5  A    between atoms: C_20  and  O_23
REMARK    6  A    between atoms: C_22  and  O_25
REMARK    7  A    between atoms: C_24  and  C_28
REMARK    8  A    between atoms: C_26  and  O_29
REMARK    9  A    between atoms: C_27  and  O_30
REMARK   10  A    between atoms: C_28  and  O_31
REMARK                            x       y       z     vdW  Elec       q    Type
REMARK                         _______ _______ _______ _____ _____    ______ ____
ROOT
ATOM      1  O   UNL     1      15.215  12.175  44.308  0.00  0.00    +0.000 OA
ATOM      2  C   UNL     1      14.664  13.261  44.293  0.00  0.00    +0.000 A 
ATOM      3  C   UNL     1      13.250  13.472  43.934  0.00  0.00    +0.000 A 
ATOM      4  C   UNL     1      15.362  14.527  44.614  0.00  0.00    +0.000 A 
ATOM      5  C   UNL     1      12.827  14.786  43.958  0.00  0.00    +0.000 A 
ATOM      6  C   UNL     1      12.299  12.451  43.549  0.00  0.00    +0.000 A 
ATOM      7  C   UNL     1      14.817  15.514  44.586  0.00  0.00    +0.000 A 
ATOM      8  O   UNL     1      13.753  15.763  44.317  0.00  0.00    +0.000 OA
ATOM      9  C   UNL     1      11.483  15.118  43.538  0.00  0.00    +0.000 A 
ATOM     10  C   UNL     1      11.008  12.784  43.166  0.00  0.00    +0.000 A 
ATOM     11  C   UNL     1      10.596  14.108  43.143  0.00  0.00    +0.000 A 
ENDROOT
BRANCH   7  12
ATOM     12  C   UNL     1      15.572  16.632  45.247  0.00  0.00    +0.000 A 
ATOM     13  C   UNL     1      15.027  17.927  45.292  0.00  0.00    +0.000 A 
ATOM     14  C   UNL     1      16.859  16.419  45.774  0.00  0.00    +0.000 A 
ATOM     15  C   UNL     1      15.748  18.978  45.859  0.00  0.00    +0.000 A 
ATOM     16  C   UNL     1      17.573  17.478  46.335  0.00  0.00    +0.000 A 
ATOM     17  C   UNL     1      17.020  18.756  46.385  0.00  0.00    +0.000 A 
BRANCH  17  18
ATOM     18  O   UNL     1      17.736  19.779  46.941  0.00  0.00    +0.000 OA
ATOM     19  H   UNL     1      17.902  19.626  47.891  0.00  0.00    +0.000 HD
ENDBRANCH  17  18
ENDBRANCH   7  12
BRANCH   6  20
ATOM     20  O   UNL     1      12.653  11.139  43.523  0.00  0.00    +0.000 OA
ATOM     21  H   UNL     1      13.520  11.074  43.964  0.00  0.00    +0.000 HD
ENDBRANCH   6  20
BRANCH  11  22
ATOM     22  O   UNL     1       9.313  14.335  42.680  0.00  0.00    +0.000 OA
BRANCH  22  23
ATOM     23  C   UNL     1       8.173  14.622  43.516  0.00  0.00    +0.000 C 
ATOM     24  O   UNL     1       7.158  15.353  42.781  0.00  0.00    +0.000 OA
ATOM     25  C   UNL     1       7.598  13.273  44.012  0.00  0.00    +0.000 C 
ATOM     26  C   UNL     1       6.620  14.701  41.603  0.00  0.00    +0.000 C 
ATOM     27  C   UNL     1       6.904  12.494  42.856  0.00  0.00    +0.000 C 
ATOM     28  C   UNL     1       5.934  13.382  42.043  0.00  0.00    +0.000 C 
BRANCH  28  29
ATOM     29  O   UNL     1       5.489  12.631  40.902  0.00  0.00    +0.000 OA
ATOM     30  H   UNL     1       4.513  12.696  40.831  0.00  0.00    +0.000 HD
ENDBRANCH  28  29
BRANCH  25  31
ATOM     31  O   UNL     1       6.690  13.524  45.085  0.00  0.00    +0.000 OA
ATOM     32  H   UNL     1       7.221  13.695  45.877  0.00  0.00    +0.000 HD
ENDBRANCH  25  31
BRANCH  27  33
ATOM     33  O   UNL     1       6.155  11.378  43.359  0.00  0.00    +0.000 OA
ATOM     34  H   UNL     1       5.395  11.224  42.755  0.00  0.00    +0.000 HD
ENDBRANCH  27  33
BRANCH  26  35
ATOM     35  C   UNL     1       5.642  15.708  40.961  0.00  0.00    +0.000 C 
BRANCH  35  36
ATOM     36  O   UNL     1       5.451  15.423  39.576  0.00  0.00    +0.000 OA
ATOM     37  H   UNL     1       5.099  14.510  39.516  0.00  0.00    +0.000 HD
ENDBRANCH  35  36
ENDBRANCH  26  35
ENDBRANCH  22  23
ENDBRANCH  11  22
TORSDOF 10
ENDMDL
MODEL 7
REMARK VINA RESULT:    -6.192      3.038      9.312
REMARK INTER + INTRA:          -9.756
REMARK INTER:                  -8.764
REMARK INTRA:                  -0.992
REMARK UNBOUND:                -1.030
REMARK  Name = opt62.pdb
REMARK  10 active torsions:
REMARK  status: ('A' for Active; 'I' for Inactive)
REMARK    1  A    between atoms: C_6  and  O_10
REMARK    2  A    between atoms: C_7  and  C_12
REMARK    3  A    between atoms: C_13  and  O_16
REMARK    4  A    between atoms: O_16  and  C_19
REMARK    5  A    between atoms: C_20  and  O_23
REMARK    6  A    between atoms: C_22  and  O_25
REMARK    7  A    between atoms: C_24  and  C_28
REMARK    8  A    between atoms: C_26  and  O_29
REMARK    9  A    between atoms: C_27  and  O_30
REMARK   10  A    between atoms: C_28  and  O_31
REMARK                            x       y       z     vdW  Elec       q    Type
REMARK                         _______ _______ _______ _____ _____    ______ ____
ROOT
ATOM      1  O   UNL     1       7.559  12.841  43.233  0.00  0.00    +0.000 OA
ATOM      2  C   UNL     1       8.252  13.838  43.324  0.00  0.00    +0.000 A 
ATOM      3  C   UNL     1       9.700  13.873  43.045  0.00  0.00    +0.000 A 
ATOM      4  C   UNL     1       7.727  15.153  43.757  0.00  0.00    +0.000 A 
ATOM      5  C   UNL     1      10.304  15.100  43.232  0.00  0.00    +0.000 A 
ATOM      6  C   UNL     1      10.521  12.758  42.625  0.00  0.00    +0.000 A 
ATOM      7  C   UNL     1       8.402  16.052  43.832  0.00  0.00    +0.000 A 
ATOM      8  O   UNL     1       9.507  16.164  43.649  0.00  0.00    +0.000 OA
ATOM      9  C   UNL     1      11.737  15.228  43.073  0.00  0.00    +0.000 A 
ATOM     10  C   UNL     1      11.891  12.902  42.460  0.00  0.00    +0.000 A 
ATOM     11  C   UNL     1      12.507  14.122  42.694  0.00  0.00    +0.000 A 
ENDROOT
BRANCH   7  12
ATOM     12  C   UNL     1       7.657  17.350  43.961  0.00  0.00    +0.000 A 
ATOM     13  C   UNL     1       8.245  18.553  43.530  0.00  0.00    +0.000 A 
ATOM     14  C   UNL     1       6.390  17.395  44.572  0.00  0.00    +0.000 A 
ATOM     15  C   UNL     1       7.577  19.766  43.697  0.00  0.00    +0.000 A 
ATOM     16  C   UNL     1       5.732  18.614  44.736  0.00  0.00    +0.000 A 
ATOM     17  C   UNL     1       6.319  19.800  44.296  0.00  0.00    +0.000 A 
BRANCH  17  18
ATOM     18  O   UNL     1       5.656  20.983  44.466  0.00  0.00    +0.000 OA
ATOM     19  H   UNL     1       6.253  21.686  44.788  0.00  0.00    +0.000 HD
ENDBRANCH  17  18
ENDBRANCH   7  12
BRANCH   6  20
ATOM     20  O   UNL     1       9.978  11.531  42.409  0.00  0.00    +0.000 OA
ATOM     21  H   UNL     1       9.775  11.156  43.286  0.00  0.00    +0.000 HD
ENDBRANCH   6  20
BRANCH  11  22
ATOM     22  O   UNL     1      13.885  14.138  42.566  0.00  0.00    +0.000 OA
BRANCH  22  23
ATOM     23  C   UNL     1      14.748  13.007  42.800  0.00  0.00    +0.000 C 
ATOM     24  O   UNL     1      16.047  13.206  42.184  0.00  0.00    +0.000 OA
ATOM     25  C   UNL     1      14.909  12.843  44.332  0.00  0.00    +0.000 C 
ATOM     26  C   UNL     1      16.799  14.364  42.625  0.00  0.00    +0.000 C 
ATOM     27  C   UNL     1      15.779  13.985  44.935  0.00  0.00    +0.000 C 
ATOM     28  C   UNL     1      17.086  14.216  44.141  0.00  0.00    +0.000 C 
BRANCH  28  29
ATOM     29  O   UNL     1      17.723  15.394  44.660  0.00  0.00    +0.000 OA
ATOM     30  H   UNL     1      18.140  15.889  43.924  0.00  0.00    +0.000 HD
ENDBRANCH  28  29
BRANCH  25  31
ATOM     31  O   UNL     1      15.477  11.561  44.601  0.00  0.00    +0.000 OA
ATOM     32  H   UNL     1      16.433  11.684  44.695  0.00  0.00    +0.000 HD
ENDBRANCH  25  31
BRANCH  27  33
ATOM     33  O   UNL     1      16.140  13.698  46.294  0.00  0.00    +0.000 OA
ATOM     34  H   UNL     1      16.247  14.552  46.768  0.00  0.00    +0.000 HD
ENDBRANCH  27  33
BRANCH  26  35
ATOM     35  C   UNL     1      18.081  14.399  41.765  0.00  0.00    +0.000 C 
BRANCH  35  36
ATOM     36  O   UNL     1      19.248  14.362  42.586  0.00  0.00    +0.000 OA
ATOM     37  H   UNL     1      19.276  15.206  43.084  0.00  0.00    +0.000 HD
ENDBRANCH  35  36
ENDBRANCH  26  35
ENDBRANCH  22  23
ENDBRANCH  11  22
TORSDOF 10
ENDMDL
MODEL 8
REMARK VINA RESULT:    -6.162      2.565      9.733
REMARK INTER + INTRA:          -9.714
REMARK INTER:                  -8.779
REMARK INTRA:                  -0.934
REMARK UNBOUND:                -1.030
REMARK  Name = opt62.pdb
REMARK  10 active torsions:
REMARK  status: ('A' for Active; 'I' for Inactive)
REMARK    1  A    between atoms: C_6  and  O_10
REMARK    2  A    between atoms: C_7  and  C_12
REMARK    3  A    between atoms: C_13  and  O_16
REMARK    4  A    between atoms: O_16  and  C_19
REMARK    5  A    between atoms: C_20  and  O_23
REMARK    6  A    between atoms: C_22  and  O_25
REMARK    7  A    between atoms: C_24  and  C_28
REMARK    8  A    between atoms: C_26  and  O_29
REMARK    9  A    between atoms: C_27  and  O_30
REMARK   10  A    between atoms: C_28  and  O_31
REMARK                            x       y       z     vdW  Elec       q    Type
REMARK                         _______ _______ _______ _____ _____    ______ ____
ROOT
ATOM      1  O   UNL     1       7.855  17.320  43.306  0.00  0.00    +0.000 OA
ATOM      2  C   UNL     1       8.487  16.281  43.250  0.00  0.00    +0.000 A 
ATOM      3  C   UNL     1       9.959  16.199  43.292  0.00  0.00    +0.000 A 
ATOM      4  C   UNL     1       7.850  14.952  43.107  0.00  0.00    +0.000 A 
ATOM      5  C   UNL     1      10.479  14.924  43.192  0.00  0.00    +0.000 A 
ATOM      6  C   UNL     1      10.878  17.310  43.405  0.00  0.00    +0.000 A 
ATOM      7  C   UNL     1       8.471  14.012  43.056  0.00  0.00    +0.000 A 
ATOM      8  O   UNL     1       9.586  13.862  43.071  0.00  0.00    +0.000 OA
ATOM      9  C   UNL     1      11.912  14.734  43.133  0.00  0.00    +0.000 A 
ATOM     10  C   UNL     1      12.250  17.109  43.365  0.00  0.00    +0.000 A 
ATOM     11  C   UNL     1      12.775  15.835  43.216  0.00  0.00    +0.000 A 
ENDROOT
BRANCH   7  12
ATOM     12  C   UNL     1       7.669  12.756  43.241  0.00  0.00    +0.000 A 
ATOM     13  C   UNL     1       6.270  12.817  43.368  0.00  0.00    +0.000 A 
ATOM     14  C   UNL     1       8.306  11.506  43.355  0.00  0.00    +0.000 A 
ATOM     15  C   UNL     1       5.528  11.657  43.592  0.00  0.00    +0.000 A 
ATOM     16  C   UNL     1       7.555  10.353  43.583  0.00  0.00    +0.000 A 
ATOM     17  C   UNL     1       6.168  10.423  43.697  0.00  0.00    +0.000 A 
BRANCH  17  18
ATOM     18  O   UNL     1       5.451   9.281  43.918  0.00  0.00    +0.000 OA
ATOM     19  H   UNL     1       4.828   9.386  44.663  0.00  0.00    +0.000 HD
ENDBRANCH  17  18
ENDBRANCH   7  12
BRANCH   6  20
ATOM     20  O   UNL     1      10.424  18.586  43.524  0.00  0.00    +0.000 OA
ATOM     21  H   UNL     1      10.574  18.852  44.449  0.00  0.00    +0.000 HD
ENDBRANCH   6  20
BRANCH  11  22
ATOM     22  O   UNL     1      14.152  15.754  43.118  0.00  0.00    +0.000 OA
BRANCH  22  23
ATOM     23  C   UNL     1      14.889  14.554  42.805  0.00  0.00    +0.000 C 
ATOM     24  O   UNL     1      16.201  14.870  42.273  0.00  0.00    +0.000 OA
ATOM     25  C   UNL     1      15.032  13.733  44.110  0.00  0.00    +0.000 C 
ATOM     26  C   UNL     1      17.074  15.648  43.131  0.00  0.00    +0.000 C 
ATOM     27  C   UNL     1      16.021  14.413  45.102  0.00  0.00    +0.000 C 
ATOM     28  C   UNL     1      17.344  14.834  44.423  0.00  0.00    +0.000 C 
BRANCH  28  29
ATOM     29  O   UNL     1      18.105  15.607  45.364  0.00  0.00    +0.000 OA
ATOM     30  H   UNL     1      18.811  16.094  44.890  0.00  0.00    +0.000 HD
ENDBRANCH  28  29
BRANCH  25  31
ATOM     31  O   UNL     1      15.458  12.410  43.779  0.00  0.00    +0.000 OA
ATOM     32  H   UNL     1      16.384  12.468  43.502  0.00  0.00    +0.000 HD
ENDBRANCH  25  31
BRANCH  27  33
ATOM     33  O   UNL     1      16.349  13.536  46.190  0.00  0.00    +0.000 OA
ATOM     34  H   UNL     1      16.018  12.638  45.967  0.00  0.00    +0.000 HD
ENDBRANCH  27  33
BRANCH  26  35
ATOM     35  C   UNL     1      18.351  15.923  42.309  0.00  0.00    +0.000 C 
BRANCH  35  36
ATOM     36  O   UNL     1      19.404  15.037  42.688  0.00  0.00    +0.000 OA
ATOM     37  H   UNL     1      19.118  14.585  43.509  0.00  0.00    +0.000 HD
ENDBRANCH  35  36
ENDBRANCH  26  35
ENDBRANCH  22  23
ENDBRANCH  11  22
TORSDOF 10
ENDMDL
MODEL 9
REMARK VINA RESULT:    -6.152      3.965      5.029
REMARK INTER + INTRA:          -9.699
REMARK INTER:                  -9.038
REMARK INTRA:                  -0.661
REMARK UNBOUND:                -1.030
REMARK  Name = opt62.pdb
REMARK  10 active torsions:
REMARK  status: ('A' for Active; 'I' for Inactive)
REMARK    1  A    between atoms: C_6  and  O_10
REMARK    2  A    between atoms: C_7  and  C_12
REMARK    3  A    between atoms: C_13  and  O_16
REMARK    4  A    between atoms: O_16  and  C_19
REMARK    5  A    between atoms: C_20  and  O_23
REMARK    6  A    between atoms: C_22  and  O_25
REMARK    7  A    between atoms: C_24  and  C_28
REMARK    8  A    between atoms: C_26  and  O_29
REMARK    9  A    between atoms: C_27  and  O_30
REMARK   10  A    between atoms: C_28  and  O_31
REMARK                            x       y       z     vdW  Elec       q    Type
REMARK                         _______ _______ _______ _____ _____    ______ ____
ROOT
ATOM      1  O   UNL     1      15.439  12.068  44.084  0.00  0.00    +0.000 OA
ATOM      2  C   UNL     1      14.839  13.126  44.123  0.00  0.00    +0.000 A 
ATOM      3  C   UNL     1      13.390  13.270  43.892  0.00  0.00    +0.000 A 
ATOM      4  C   UNL     1      15.502  14.424  44.385  0.00  0.00    +0.000 A 
ATOM      5  C   UNL     1      12.909  14.563  43.959  0.00  0.00    +0.000 A 
ATOM      6  C   UNL     1      12.458  12.206  43.590  0.00  0.00    +0.000 A 
ATOM      7  C   UNL     1      14.912  15.384  44.410  0.00  0.00    +0.000 A 
ATOM      8  O   UNL     1      13.817  15.583  44.238  0.00  0.00    +0.000 OA
ATOM      9  C   UNL     1      11.519  14.831  43.662  0.00  0.00    +0.000 A 
ATOM     10  C   UNL     1      11.123  12.478  43.325  0.00  0.00    +0.000 A 
ATOM     11  C   UNL     1      10.649  13.780  43.344  0.00  0.00    +0.000 A 
ENDROOT
BRANCH   7  12
ATOM     12  C   UNL     1      15.669  16.536  45.006  0.00  0.00    +0.000 A 
ATOM     13  C   UNL     1      16.920  16.327  45.612  0.00  0.00    +0.000 A 
ATOM     14  C   UNL     1      15.114  17.829  45.024  0.00  0.00    +0.000 A 
ATOM     15  C   UNL     1      17.602  17.386  46.211  0.00  0.00    +0.000 A 
ATOM     16  C   UNL     1      15.803  18.881  45.629  0.00  0.00    +0.000 A 
ATOM     17  C   UNL     1      17.047  18.665  46.219  0.00  0.00    +0.000 A 
BRANCH  17  18
ATOM     18  O   UNL     1      17.706  19.710  46.805  0.00  0.00    +0.000 OA
ATOM     19  H   UNL     1      18.038  19.472  47.692  0.00  0.00    +0.000 HD
ENDBRANCH  17  18
ENDBRANCH   7  12
BRANCH   6  20
ATOM     20  O   UNL     1      12.869  10.912  43.528  0.00  0.00    +0.000 OA
ATOM     21  H   UNL     1      12.550  10.476  44.339  0.00  0.00    +0.000 HD
ENDBRANCH   6  20
BRANCH  11  22
ATOM     22  O   UNL     1       9.320  13.946  42.998  0.00  0.00    +0.000 OA
BRANCH  22  23
ATOM     23  C   UNL     1       8.212  13.283  43.640  0.00  0.00    +0.000 C 
ATOM     24  O   UNL     1       7.096  14.192  43.826  0.00  0.00    +0.000 OA
ATOM     25  C   UNL     1       7.784  12.098  42.740  0.00  0.00    +0.000 C 
ATOM     26  C   UNL     1       6.546  14.791  42.626  0.00  0.00    +0.000 C 
ATOM     27  C   UNL     1       7.091  12.596  41.438  0.00  0.00    +0.000 C 
ATOM     28  C   UNL     1       6.002  13.658  41.717  0.00  0.00    +0.000 C 
BRANCH  28  29
ATOM     29  O   UNL     1       5.555  14.183  40.457  0.00  0.00    +0.000 OA
ATOM     30  H   UNL     1       5.746  15.144  40.419  0.00  0.00    +0.000 HD
ENDBRANCH  28  29
BRANCH  25  31
ATOM     31  O   UNL     1       6.923  11.238  43.488  0.00  0.00    +0.000 OA
ATOM     32  H   UNL     1       6.870  11.595  44.386  0.00  0.00    +0.000 HD
ENDBRANCH  25  31
BRANCH  27  33
ATOM     33  O   UNL     1       6.471  11.511  40.733  0.00  0.00    +0.000 OA
ATOM     34  H   UNL     1       5.565  11.794  40.476  0.00  0.00    +0.000 HD
ENDBRANCH  27  33
BRANCH  26  35
ATOM     35  C   UNL     1       5.451  15.771  43.096  0.00  0.00    +0.000 C 
BRANCH  35  36
ATOM     36  O   UNL     1       5.740  16.274  44.400  0.00  0.00    +0.000 OA
ATOM     37  H   UNL     1       6.626  15.936  44.648  0.00  0.00    +0.000 HD
ENDBRANCH  35  36
ENDBRANCH  26  35
ENDBRANCH  22  23
ENDBRANCH  11  22
TORSDOF 10
ENDMDL
MODEL 10
REMARK VINA RESULT:    -6.098      3.645      9.721
REMARK INTER + INTRA:          -9.623
REMARK INTER:                  -8.783
REMARK INTRA:                  -0.839
REMARK UNBOUND:                -1.030
REMARK  Name = opt62.pdb
REMARK  10 active torsions:
REMARK  status: ('A' for Active; 'I' for Inactive)
REMARK    1  A    between atoms: C_6  and  O_10
REMARK    2  A    between atoms: C_7  and  C_12
REMARK    3  A    between atoms: C_13  and  O_16
REMARK    4  A    between atoms: O_16  and  C_19
REMARK    5  A    between atoms: C_20  and  O_23
REMARK    6  A    between atoms: C_22  and  O_25
REMARK    7  A    between atoms: C_24  and  C_28
REMARK    8  A    between atoms: C_26  and  O_29
REMARK    9  A    between atoms: C_27  and  O_30
REMARK   10  A    between atoms: C_28  and  O_31
REMARK                            x       y       z     vdW  Elec       q    Type
REMARK                         _______ _______ _______ _____ _____    ______ ____
ROOT
ATOM      1  O   UNL     1       7.452  17.131  42.184  0.00  0.00    +0.000 OA
ATOM      2  C   UNL     1       8.128  16.195  42.570  0.00  0.00    +0.000 A 
ATOM      3  C   UNL     1       9.522  16.311  43.036  0.00  0.00    +0.000 A 
ATOM      4  C   UNL     1       7.637  14.798  42.599  0.00  0.00    +0.000 A 
ATOM      5  C   UNL     1      10.118  15.124  43.411  0.00  0.00    +0.000 A 
ATOM      6  C   UNL     1      10.304  17.526  43.111  0.00  0.00    +0.000 A 
ATOM      7  C   UNL     1       8.294  13.958  42.962  0.00  0.00    +0.000 A 
ATOM      8  O   UNL     1       9.361  13.957  43.322  0.00  0.00    +0.000 OA
ATOM      9  C   UNL     1      11.511  15.108  43.799  0.00  0.00    +0.000 A 
ATOM     10  C   UNL     1      11.635  17.497  43.503  0.00  0.00    +0.000 A 
ATOM     11  C   UNL     1      12.249  16.298  43.834  0.00  0.00    +0.000 A 
ENDROOT
BRANCH   7  12
ATOM     12  C   UNL     1       7.544  12.685  43.232  0.00  0.00    +0.000 A 
ATOM     13  C   UNL     1       8.235  11.467  43.360  0.00  0.00    +0.000 A 
ATOM     14  C   UNL     1       6.138  12.678  43.297  0.00  0.00    +0.000 A 
ATOM     15  C   UNL     1       7.536  10.276  43.560  0.00  0.00    +0.000 A 
ATOM     16  C   UNL     1       5.450  11.481  43.494  0.00  0.00    +0.000 A 
ATOM     17  C   UNL     1       6.144  10.280  43.630  0.00  0.00    +0.000 A 
BRANCH  17  18
ATOM     18  O   UNL     1       5.450   9.118  43.823  0.00  0.00    +0.000 OA
ATOM     19  H   UNL     1       5.166   8.725  42.976  0.00  0.00    +0.000 HD
ENDBRANCH  17  18
ENDBRANCH   7  12
BRANCH   6  20
ATOM     20  O   UNL     1       9.766  18.728  42.772  0.00  0.00    +0.000 OA
ATOM     21  H   UNL     1      10.433  19.192  42.234  0.00  0.00    +0.000 HD
ENDBRANCH   6  20
BRANCH  11  22
ATOM     22  O   UNL     1      13.594  16.373  44.144  0.00  0.00    +0.000 OA
BRANCH  22  23
ATOM     23  C   UNL     1      14.668  15.998  43.255  0.00  0.00    +0.000 C 
ATOM     24  O   UNL     1      15.959  16.326  43.830  0.00  0.00    +0.000 OA
ATOM     25  C   UNL     1      14.570  14.472  43.012  0.00  0.00    +0.000 C 
ATOM     26  C   UNL     1      16.275  15.706  45.102  0.00  0.00    +0.000 C 
ATOM     27  C   UNL     1      14.970  13.669  44.284  0.00  0.00    +0.000 C 
ATOM     28  C   UNL     1      16.295  14.168  44.907  0.00  0.00    +0.000 C 
BRANCH  28  29
ATOM     29  O   UNL     1      16.482  13.495  46.162  0.00  0.00    +0.000 OA
ATOM     30  H   UNL     1      17.093  14.017  46.723  0.00  0.00    +0.000 HD
ENDBRANCH  28  29
BRANCH  25  31
ATOM     31  O   UNL     1      15.397  14.128  41.900  0.00  0.00    +0.000 OA
ATOM     32  H   UNL     1      15.398  14.886  41.298  0.00  0.00    +0.000 HD
ENDBRANCH  25  31
BRANCH  27  33
ATOM     33  O   UNL     1      15.127  12.273  43.988  0.00  0.00    +0.000 OA
ATOM     34  H   UNL     1      16.079  12.047  44.082  0.00  0.00    +0.000 HD
ENDBRANCH  27  33
BRANCH  26  35
ATOM     35  C   UNL     1      17.641  16.281  45.535  0.00  0.00    +0.000 C 
BRANCH  35  36
ATOM     36  O   UNL     1      18.665  15.292  45.438  0.00  0.00    +0.000 OA
ATOM     37  H   UNL     1      19.193  15.343  46.262  0.00  0.00    +0.000 HD
ENDBRANCH  35  36
ENDBRANCH  26  35
ENDBRANCH  22  23
ENDBRANCH  11  22
TORSDOF 10
ENDMDL
MODEL 11
REMARK VINA RESULT:    -6.066      3.994      5.587
REMARK INTER + INTRA:          -9.578
REMARK INTER:                  -8.503
REMARK INTRA:                  -1.074
REMARK UNBOUND:                -1.030
REMARK  Name = opt62.pdb
REMARK  10 active torsions:
REMARK  status: ('A' for Active; 'I' for Inactive)
REMARK    1  A    between atoms: C_6  and  O_10
REMARK    2  A    between atoms: C_7  and  C_12
REMARK    3  A    between atoms: C_13  and  O_16
REMARK    4  A    between atoms: O_16  and  C_19
REMARK    5  A    between atoms: C_20  and  O_23
REMARK    6  A    between atoms: C_22  and  O_25
REMARK    7  A    between atoms: C_24  and  C_28
REMARK    8  A    between atoms: C_26  and  O_29
REMARK    9  A    between atoms: C_27  and  O_30
REMARK   10  A    between atoms: C_28  and  O_31
REMARK                            x       y       z     vdW  Elec       q    Type
REMARK                         _______ _______ _______ _____ _____    ______ ____
ROOT
ATOM      1  O   UNL     1      14.123  11.186  44.461  0.00  0.00    +0.000 OA
ATOM      2  C   UNL     1      13.790  12.314  44.150  0.00  0.00    +0.000 A 
ATOM      3  C   UNL     1      12.509  12.656  43.505  0.00  0.00    +0.000 A 
ATOM      4  C   UNL     1      14.651  13.500  44.361  0.00  0.00    +0.000 A 
ATOM      5  C   UNL     1      12.336  13.994  43.214  0.00  0.00    +0.000 A 
ATOM      6  C   UNL     1      11.457  11.732  43.141  0.00  0.00    +0.000 A 
ATOM      7  C   UNL     1      14.308  14.530  44.057  0.00  0.00    +0.000 A 
ATOM      8  O   UNL     1      13.360  14.874  43.556  0.00  0.00    +0.000 OA
ATOM      9  C   UNL     1      11.155  14.429  42.501  0.00  0.00    +0.000 A 
ATOM     10  C   UNL     1      10.322  12.168  42.473  0.00  0.00    +0.000 A 
ATOM     11  C   UNL     1      10.168  13.504  42.137  0.00  0.00    +0.000 A 
ENDROOT
BRANCH   7  12
ATOM     12  C   UNL     1      15.146  15.635  44.634  0.00  0.00    +0.000 A 
ATOM     13  C   UNL     1      16.423  15.360  45.155  0.00  0.00    +0.000 A 
ATOM     14  C   UNL     1      14.646  16.947  44.720  0.00  0.00    +0.000 A 
ATOM     15  C   UNL     1      17.182  16.375  45.738  0.00  0.00    +0.000 A 
ATOM     16  C   UNL     1      15.412  17.954  45.308  0.00  0.00    +0.000 A 
ATOM     17  C   UNL     1      16.681  17.673  45.813  0.00  0.00    +0.000 A 
BRANCH  17  18
ATOM     18  O   UNL     1      17.416  18.675  46.384  0.00  0.00    +0.000 OA
ATOM     19  H   UNL     1      17.650  19.364  45.732  0.00  0.00    +0.000 HD
ENDBRANCH  17  18
ENDBRANCH   7  12
BRANCH   6  20
ATOM     20  O   UNL     1      11.563  10.405  43.418  0.00  0.00    +0.000 OA
ATOM     21  H   UNL     1      11.480   9.934  42.569  0.00  0.00    +0.000 HD
ENDBRANCH   6  20
BRANCH  11  22
ATOM     22  O   UNL     1       9.033  13.819  41.412  0.00  0.00    +0.000 OA
BRANCH  22  23
ATOM     23  C   UNL     1       7.746  13.189  41.580  0.00  0.00    +0.000 C 
ATOM     24  O   UNL     1       7.090  13.655  42.788  0.00  0.00    +0.000 OA
ATOM     25  C   UNL     1       6.883  13.539  40.342  0.00  0.00    +0.000 C 
ATOM     26  C   UNL     1       6.838  15.080  42.876  0.00  0.00    +0.000 C 
ATOM     27  C   UNL     1       6.461  15.038  40.351  0.00  0.00    +0.000 C 
ATOM     28  C   UNL     1       5.891  15.484  41.717  0.00  0.00    +0.000 C 
BRANCH  28  29
ATOM     29  O   UNL     1       5.704  16.908  41.681  0.00  0.00    +0.000 OA
ATOM     30  H   UNL     1       5.859  17.233  40.769  0.00  0.00    +0.000 HD
ENDBRANCH  28  29
BRANCH  25  31
ATOM     31  O   UNL     1       5.743  12.680  40.317  0.00  0.00    +0.000 OA
ATOM     32  H   UNL     1       5.937  11.928  40.895  0.00  0.00    +0.000 HD
ENDBRANCH  25  31
BRANCH  27  33
ATOM     33  O   UNL     1       5.461  15.300  39.355  0.00  0.00    +0.000 OA
ATOM     34  H   UNL     1       5.213  16.249  39.416  0.00  0.00    +0.000 HD
ENDBRANCH  27  33
BRANCH  26  35
ATOM     35  C   UNL     1       6.228  15.325  44.272  0.00  0.00    +0.000 C 
BRANCH  35  36
ATOM     36  O   UNL     1       6.280  16.709  44.618  0.00  0.00    +0.000 OA
ATOM     37  H   UNL     1       7.215  16.990  44.536  0.00  0.00    +0.000 HD
ENDBRANCH  35  36
ENDBRANCH  26  35
ENDBRANCH  22  23
ENDBRANCH  11  22
TORSDOF 10
ENDMDL
MODEL 12
REMARK VINA RESULT:    -6.048      2.748      8.712
REMARK INTER + INTRA:          -9.553
REMARK INTER:                  -8.540
REMARK INTRA:                  -1.013
REMARK UNBOUND:                -1.030
REMARK  Name = opt62.pdb
REMARK  10 active torsions:
REMARK  status: ('A' for Active; 'I' for Inactive)
REMARK    1  A    between atoms: C_6  and  O_10
REMARK    2  A    between atoms: C_7  and  C_12
REMARK    3  A    between atoms: C_13  and  O_16
REMARK    4  A    between atoms: O_16  and  C_19
REMARK    5  A    between atoms: C_20  and  O_23
REMARK    6  A    between atoms: C_22  and  O_25
REMARK    7  A    between atoms: C_24  and  C_28
REMARK    8  A    between atoms: C_26  and  O_29
REMARK    9  A    between atoms: C_27  and  O_30
REMARK   10  A    between atoms: C_28  and  O_31
REMARK                            x       y       z     vdW  Elec       q    Type
REMARK                         _______ _______ _______ _____ _____    ______ ____
ROOT
ATOM      1  O   UNL     1      11.654  10.447  43.423  0.00  0.00    +0.000 OA
ATOM      2  C   UNL     1      11.576  11.655  43.293  0.00  0.00    +0.000 A 
ATOM      3  C   UNL     1      12.646  12.602  43.654  0.00  0.00    +0.000 A 
ATOM      4  C   UNL     1      10.369  12.336  42.770  0.00  0.00    +0.000 A 
ATOM      5  C   UNL     1      12.347  13.934  43.447  0.00  0.00    +0.000 A 
ATOM      6  C   UNL     1      13.939  12.267  44.209  0.00  0.00    +0.000 A 
ATOM      7  C   UNL     1      10.334  13.458  42.666  0.00  0.00    +0.000 A 
ATOM      8  O   UNL     1      11.094  14.248  42.923  0.00  0.00    +0.000 OA
ATOM      9  C   UNL     1      13.290  14.955  43.848  0.00  0.00    +0.000 A 
ATOM     10  C   UNL     1      14.840  13.258  44.573  0.00  0.00    +0.000 A 
ATOM     11  C   UNL     1      14.521  14.597  44.411  0.00  0.00    +0.000 A 
ENDROOT
BRANCH   7  12
ATOM     12  C   UNL     1       9.187  13.945  41.828  0.00  0.00    +0.000 A 
ATOM     13  C   UNL     1       9.286  15.159  41.126  0.00  0.00    +0.000 A 
ATOM     14  C   UNL     1       7.975  13.232  41.782  0.00  0.00    +0.000 A 
ATOM     15  C   UNL     1       8.204  15.640  40.388  0.00  0.00    +0.000 A 
ATOM     16  C   UNL     1       6.898  13.723  41.044  0.00  0.00    +0.000 A 
ATOM     17  C   UNL     1       7.009  14.922  40.343  0.00  0.00    +0.000 A 
BRANCH  17  18
ATOM     18  O   UNL     1       5.942  15.385  39.625  0.00  0.00    +0.000 OA
ATOM     19  H   UNL     1       5.977  15.084  38.697  0.00  0.00    +0.000 HD
ENDBRANCH  17  18
ENDBRANCH   7  12
BRANCH   6  20
ATOM     20  O   UNL     1      14.297  10.972  44.419  0.00  0.00    +0.000 OA
ATOM     21  H   UNL     1      13.628  10.421  43.974  0.00  0.00    +0.000 HD
ENDBRANCH   6  20
BRANCH  11  22
ATOM     22  O   UNL     1      15.461  15.503  44.869  0.00  0.00    +0.000 OA
BRANCH  22  23
ATOM     23  C   UNL     1      16.192  16.426  44.035  0.00  0.00    +0.000 C 
ATOM     24  O   UNL     1      17.225  17.108  44.793  0.00  0.00    +0.000 OA
ATOM     25  C   UNL     1      16.832  15.616  42.881  0.00  0.00    +0.000 C 
ATOM     26  C   UNL     1      18.230  16.269  45.415  0.00  0.00    +0.000 C 
ATOM     27  C   UNL     1      18.000  14.723  43.395  0.00  0.00    +0.000 C 
ATOM     28  C   UNL     1      18.984  15.499  44.300  0.00  0.00    +0.000 C 
BRANCH  28  29
ATOM     29  O   UNL     1      19.911  14.558  44.864  0.00  0.00    +0.000 OA
ATOM     30  H   UNL     1      20.554  14.283  44.178  0.00  0.00    +0.000 HD
ENDBRANCH  28  29
BRANCH  25  31
ATOM     31  O   UNL     1      17.279  16.524  41.873  0.00  0.00    +0.000 OA
ATOM     32  H   UNL     1      16.640  17.250  41.836  0.00  0.00    +0.000 HD
ENDBRANCH  25  31
BRANCH  27  33
ATOM     33  O   UNL     1      18.753  14.175  42.302  0.00  0.00    +0.000 OA
ATOM     34  H   UNL     1      18.507  14.666  41.487  0.00  0.00    +0.000 HD
ENDBRANCH  27  33
BRANCH  26  35
ATOM     35  C   UNL     1      19.142  17.215  46.224  0.00  0.00    +0.000 C 
BRANCH  35  36
ATOM     36  O   UNL     1      20.445  17.287  45.645  0.00  0.00    +0.000 OA
ATOM     37  H   UNL     1      20.564  18.203  45.318  0.00  0.00    +0.000 HD
ENDBRANCH  35  36
ENDBRANCH  26  35
ENDBRANCH  22  23
ENDBRANCH  11  22
TORSDOF 10
ENDMDL
MODEL 13
REMARK VINA RESULT:    -5.891      3.298      8.741
REMARK INTER + INTRA:          -9.331
REMARK INTER:                  -8.322
REMARK INTRA:                  -1.009
REMARK UNBOUND:                -1.030
REMARK  Name = opt62.pdb
REMARK  10 active torsions:
REMARK  status: ('A' for Active; 'I' for Inactive)
REMARK    1  A    between atoms: C_6  and  O_10
REMARK    2  A    between atoms: C_7  and  C_12
REMARK    3  A    between atoms: C_13  and  O_16
REMARK    4  A    between atoms: O_16  and  C_19
REMARK    5  A    between atoms: C_20  and  O_23
REMARK    6  A    between atoms: C_22  and  O_25
REMARK    7  A    between atoms: C_24  and  C_28
REMARK    8  A    between atoms: C_26  and  O_29
REMARK    9  A    between atoms: C_27  and  O_30
REMARK   10  A    between atoms: C_28  and  O_31
REMARK                            x       y       z     vdW  Elec       q    Type
REMARK                         _______ _______ _______ _____ _____    ______ ____
ROOT
ATOM      1  O   UNL     1      12.148  10.670  43.526  0.00  0.00    +0.000 OA
ATOM      2  C   UNL     1      12.054  11.881  43.447  0.00  0.00    +0.000 A 
ATOM      3  C   UNL     1      13.107  12.827  43.860  0.00  0.00    +0.000 A 
ATOM      4  C   UNL     1      10.843  12.568  42.942  0.00  0.00    +0.000 A 
ATOM      5  C   UNL     1      12.790  14.162  43.708  0.00  0.00    +0.000 A 
ATOM      6  C   UNL     1      14.399  12.486  44.415  0.00  0.00    +0.000 A 
ATOM      7  C   UNL     1      10.793  13.693  42.886  0.00  0.00    +0.000 A 
ATOM      8  O   UNL     1      11.539  14.481  43.186  0.00  0.00    +0.000 OA
ATOM      9  C   UNL     1      13.715  15.178  44.164  0.00  0.00    +0.000 A 
ATOM     10  C   UNL     1      15.282  13.472  44.831  0.00  0.00    +0.000 A 
ATOM     11  C   UNL     1      14.946  14.813  44.724  0.00  0.00    +0.000 A 
ENDROOT
BRANCH   7  12
ATOM     12  C   UNL     1       9.647  14.200  42.058  0.00  0.00    +0.000 A 
ATOM     13  C   UNL     1       9.802  15.347  41.259  0.00  0.00    +0.000 A 
ATOM     14  C   UNL     1       8.387  13.578  42.115  0.00  0.00    +0.000 A 
ATOM     15  C   UNL     1       8.725  15.851  40.529  0.00  0.00    +0.000 A 
ATOM     16  C   UNL     1       7.316  14.092  41.383  0.00  0.00    +0.000 A 
ATOM     17  C   UNL     1       7.481  15.223  40.587  0.00  0.00    +0.000 A 
BRANCH  17  18
ATOM     18  O   UNL     1       6.419  15.709  39.877  0.00  0.00    +0.000 OA
ATOM     19  H   UNL     1       6.700  16.382  39.227  0.00  0.00    +0.000 HD
ENDBRANCH  17  18
ENDBRANCH   7  12
BRANCH   6  20
ATOM     20  O   UNL     1      14.773  11.189  44.572  0.00  0.00    +0.000 OA
ATOM     21  H   UNL     1      13.956  10.676  44.708  0.00  0.00    +0.000 HD
ENDBRANCH   6  20
BRANCH  11  22
ATOM     22  O   UNL     1      15.868  15.711  45.231  0.00  0.00    +0.000 OA
BRANCH  22  23
ATOM     23  C   UNL     1      15.899  17.121  44.927  0.00  0.00    +0.000 C 
ATOM     24  O   UNL     1      16.170  17.905  46.119  0.00  0.00    +0.000 OA
ATOM     25  C   UNL     1      17.013  17.354  43.877  0.00  0.00    +0.000 C 
ATOM     26  C   UNL     1      17.418  17.628  46.803  0.00  0.00    +0.000 C 
ATOM     27  C   UNL     1      18.428  17.174  44.501  0.00  0.00    +0.000 C 
ATOM     28  C   UNL     1      18.588  17.940  45.835  0.00  0.00    +0.000 C 
BRANCH  28  29
ATOM     29  O   UNL     1      19.847  17.567  46.417  0.00  0.00    +0.000 OA
ATOM     30  H   UNL     1      19.802  16.637  46.721  0.00  0.00    +0.000 HD
ENDBRANCH  28  29
BRANCH  25  31
ATOM     31  O   UNL     1      16.855  18.660  43.320  0.00  0.00    +0.000 OA
ATOM     32  H   UNL     1      17.742  19.024  43.187  0.00  0.00    +0.000 HD
ENDBRANCH  25  31
BRANCH  27  33
ATOM     33  O   UNL     1      19.451  17.636  43.608  0.00  0.00    +0.000 OA
ATOM     34  H   UNL     1      20.030  16.872  43.388  0.00  0.00    +0.000 HD
ENDBRANCH  27  33
BRANCH  26  35
ATOM     35  C   UNL     1      17.422  18.514  48.067  0.00  0.00    +0.000 C 
BRANCH  35  36
ATOM     36  O   UNL     1      18.578  18.260  48.865  0.00  0.00    +0.000 OA
ATOM     37  H   UNL     1      19.127  19.072  48.843  0.00  0.00    +0.000 HD
ENDBRANCH  35  36
ENDBRANCH  26  35
ENDBRANCH  22  23
ENDBRANCH  11  22
TORSDOF 10
ENDMDL
MODEL 14
REMARK VINA RESULT:    -5.862      3.499      8.909
REMARK INTER + INTRA:          -9.291
REMARK INTER:                  -8.185
REMARK INTRA:                  -1.105
REMARK UNBOUND:                -1.030
REMARK  Name = opt62.pdb
REMARK  10 active torsions:
REMARK  status: ('A' for Active; 'I' for Inactive)
REMARK    1  A    between atoms: C_6  and  O_10
REMARK    2  A    between atoms: C_7  and  C_12
REMARK    3  A    between atoms: C_13  and  O_16
REMARK    4  A    between atoms: O_16  and  C_19
REMARK    5  A    between atoms: C_20  and  O_23
REMARK    6  A    between atoms: C_22  and  O_25
REMARK    7  A    between atoms: C_24  and  C_28
REMARK    8  A    between atoms: C_26  and  O_29
REMARK    9  A    between atoms: C_27  and  O_30
REMARK   10  A    between atoms: C_28  and  O_31
REMARK                            x       y       z     vdW  Elec       q    Type
REMARK                         _______ _______ _______ _____ _____    ______ ____
ROOT
ATOM      1  O   UNL     1      11.698  11.329  43.351  0.00  0.00    +0.000 OA
ATOM      2  C   UNL     1      11.722  12.505  43.663  0.00  0.00    +0.000 A 
ATOM      3  C   UNL     1      12.945  13.245  44.025  0.00  0.00    +0.000 A 
ATOM      4  C   UNL     1      10.507  13.347  43.743  0.00  0.00    +0.000 A 
ATOM      5  C   UNL     1      12.751  14.568  44.370  0.00  0.00    +0.000 A 
ATOM      6  C   UNL     1      14.290  12.713  44.069  0.00  0.00    +0.000 A 
ATOM      7  C   UNL     1      10.570  14.433  44.039  0.00  0.00    +0.000 A 
ATOM      8  O   UNL     1      11.451  15.067  44.337  0.00  0.00    +0.000 OA
ATOM      9  C   UNL     1      13.869  15.364  44.828  0.00  0.00    +0.000 A 
ATOM     10  C   UNL     1      15.354  13.495  44.494  0.00  0.00    +0.000 A 
ATOM     11  C   UNL     1      15.154  14.809  44.887  0.00  0.00    +0.000 A 
ENDROOT
BRANCH   7  12
ATOM     12  C   UNL     1       9.314  15.205  43.752  0.00  0.00    +0.000 A 
ATOM     13  C   UNL     1       9.323  16.611  43.778  0.00  0.00    +0.000 A 
ATOM     14  C   UNL     1       8.097  14.539  43.517  0.00  0.00    +0.000 A 
ATOM     15  C   UNL     1       8.147  17.330  43.564  0.00  0.00    +0.000 A 
ATOM     16  C   UNL     1       6.926  15.267  43.308  0.00  0.00    +0.000 A 
ATOM     17  C   UNL     1       6.947  16.661  43.325  0.00  0.00    +0.000 A 
BRANCH  17  18
ATOM     18  O   UNL     1       5.789  17.355  43.116  0.00  0.00    +0.000 OA
ATOM     19  H   UNL     1       5.751  18.164  43.662  0.00  0.00    +0.000 HD
ENDBRANCH  17  18
ENDBRANCH   7  12
BRANCH   6  20
ATOM     20  O   UNL     1      14.544  11.423  43.725  0.00  0.00    +0.000 OA
ATOM     21  H   UNL     1      14.836  11.433  42.795  0.00  0.00    +0.000 HD
ENDBRANCH   6  20
BRANCH  11  22
ATOM     22  O   UNL     1      16.270  15.477  45.357  0.00  0.00    +0.000 OA
BRANCH  22  23
ATOM     23  C   UNL     1      17.156  16.276  44.546  0.00  0.00    +0.000 C 
ATOM     24  O   UNL     1      16.495  17.482  44.083  0.00  0.00    +0.000 OA
ATOM     25  C   UNL     1      18.385  16.647  45.412  0.00  0.00    +0.000 C 
ATOM     26  C   UNL     1      15.995  18.377  45.108  0.00  0.00    +0.000 C 
ATOM     27  C   UNL     1      18.011  17.681  46.514  0.00  0.00    +0.000 C 
ATOM     28  C   UNL     1      17.196  18.871  45.956  0.00  0.00    +0.000 C 
BRANCH  28  29
ATOM     29  O   UNL     1      16.747  19.666  47.065  0.00  0.00    +0.000 OA
ATOM     30  H   UNL     1      15.862  19.357  47.349  0.00  0.00    +0.000 HD
ENDBRANCH  28  29
BRANCH  25  31
ATOM     31  O   UNL     1      19.416  17.148  44.559  0.00  0.00    +0.000 OA
ATOM     32  H   UNL     1      19.012  17.337  43.700  0.00  0.00    +0.000 HD
ENDBRANCH  25  31
BRANCH  27  33
ATOM     33  O   UNL     1      19.185  18.215  47.144  0.00  0.00    +0.000 OA
ATOM     34  H   UNL     1      19.798  18.518  46.439  0.00  0.00    +0.000 HD
ENDBRANCH  27  33
BRANCH  26  35
ATOM     35  C   UNL     1      15.266  19.518  44.367  0.00  0.00    +0.000 C 
BRANCH  35  36
ATOM     36  O   UNL     1      14.640  20.409  45.289  0.00  0.00    +0.000 OA
ATOM     37  H   UNL     1      13.799  20.704  44.879  0.00  0.00    +0.000 HD
ENDBRANCH  35  36
ENDBRANCH  26  35
ENDBRANCH  22  23
ENDBRANCH  11  22
TORSDOF 10
ENDMDL
MODEL 15
REMARK VINA RESULT:    -5.743      3.717      5.827
REMARK INTER + INTRA:          -9.123
REMARK INTER:                  -8.137
REMARK INTRA:                  -0.986
REMARK UNBOUND:                -1.030
REMARK  Name = opt62.pdb
REMARK  10 active torsions:
REMARK  status: ('A' for Active; 'I' for Inactive)
REMARK    1  A    between atoms: C_6  and  O_10
REMARK    2  A    between atoms: C_7  and  C_12
REMARK    3  A    between atoms: C_13  and  O_16
REMARK    4  A    between atoms: O_16  and  C_19
REMARK    5  A    between atoms: C_20  and  O_23
REMARK    6  A    between atoms: C_22  and  O_25
REMARK    7  A    between atoms: C_24  and  C_28
REMARK    8  A    between atoms: C_26  and  O_29
REMARK    9  A    between atoms: C_27  and  O_30
REMARK   10  A    between atoms: C_28  and  O_31
REMARK                            x       y       z     vdW  Elec       q    Type
REMARK                         _______ _______ _______ _____ _____    ______ ____
ROOT
ATOM      1  O   UNL     1      13.177  19.800  44.269  0.00  0.00    +0.000 OA
ATOM      2  C   UNL     1      13.210  18.583  44.260  0.00  0.00    +0.000 A 
ATOM      3  C   UNL     1      12.061  17.721  43.926  0.00  0.00    +0.000 A 
ATOM      4  C   UNL     1      14.418  17.803  44.614  0.00  0.00    +0.000 A 
ATOM      5  C   UNL     1      12.304  16.364  43.997  0.00  0.00    +0.000 A 
ATOM      6  C   UNL     1      10.733  18.163  43.559  0.00  0.00    +0.000 A 
ATOM      7  C   UNL     1      14.409  16.677  44.596  0.00  0.00    +0.000 A 
ATOM      8  O   UNL     1      13.583  15.948  44.364  0.00  0.00    +0.000 OA
ATOM      9  C   UNL     1      11.225  15.426  43.776  0.00  0.00    +0.000 A 
ATOM     10  C   UNL     1       9.713  17.251  43.332  0.00  0.00    +0.000 A 
ATOM     11  C   UNL     1       9.943  15.888  43.451  0.00  0.00    +0.000 A 
ENDROOT
BRANCH   7  12
ATOM     12  C   UNL     1      15.780  16.066  44.656  0.00  0.00    +0.000 A 
ATOM     13  C   UNL     1      16.758  16.598  45.516  0.00  0.00    +0.000 A 
ATOM     14  C   UNL     1      16.130  14.996  43.812  0.00  0.00    +0.000 A 
ATOM     15  C   UNL     1      18.047  16.065  45.537  0.00  0.00    +0.000 A 
ATOM     16  C   UNL     1      17.423  14.474  43.838  0.00  0.00    +0.000 A 
ATOM     17  C   UNL     1      18.382  15.001  44.701  0.00  0.00    +0.000 A 
BRANCH  17  18
ATOM     18  O   UNL     1      19.642  14.473  44.711  0.00  0.00    +0.000 OA
ATOM     19  H   UNL     1      20.324  15.172  44.686  0.00  0.00    +0.000 HD
ENDBRANCH  17  18
ENDBRANCH   7  12
BRANCH   6  20
ATOM     20  O   UNL     1      10.440  19.486  43.455  0.00  0.00    +0.000 OA
ATOM     21  H   UNL     1      10.037  19.751  44.303  0.00  0.00    +0.000 HD
ENDBRANCH   6  20
BRANCH  11  22
ATOM     22  O   UNL     1       8.842  15.071  43.272  0.00  0.00    +0.000 OA
BRANCH  22  23
ATOM     23  C   UNL     1       7.497  15.538  43.041  0.00  0.00    +0.000 C 
ATOM     24  O   UNL     1       6.887  14.841  41.924  0.00  0.00    +0.000 OA
ATOM     25  C   UNL     1       6.680  15.283  44.332  0.00  0.00    +0.000 C 
ATOM     26  C   UNL     1       6.782  13.400  42.043  0.00  0.00    +0.000 C 
ATOM     27  C   UNL     1       6.413  13.764  44.544  0.00  0.00    +0.000 C 
ATOM     28  C   UNL     1       5.886  13.072  43.265  0.00  0.00    +0.000 C 
BRANCH  28  29
ATOM     29  O   UNL     1       5.846  11.657  43.506  0.00  0.00    +0.000 OA
ATOM     30  H   UNL     1       6.710  11.261  43.267  0.00  0.00    +0.000 HD
ENDBRANCH  28  29
BRANCH  25  31
ATOM     31  O   UNL     1       5.458  16.019  44.257  0.00  0.00    +0.000 OA
ATOM     32  H   UNL     1       5.282  16.374  45.140  0.00  0.00    +0.000 HD
ENDBRANCH  25  31
BRANCH  27  33
ATOM     33  O   UNL     1       5.450  13.547  45.586  0.00  0.00    +0.000 OA
ATOM     34  H   UNL     1       4.684  14.140  45.420  0.00  0.00    +0.000 HD
ENDBRANCH  27  33
BRANCH  26  35
ATOM     35  C   UNL     1       6.193  12.898  40.707  0.00  0.00    +0.000 C 
BRANCH  35  36
ATOM     36  O   UNL     1       6.468  11.511  40.516  0.00  0.00    +0.000 OA
ATOM     37  H   UNL     1       7.408  11.438  40.247  0.00  0.00    +0.000 HD
ENDBRANCH  35  36
ENDBRANCH  26  35
ENDBRANCH  22  23
ENDBRANCH  11  22
TORSDOF 10
ENDMDL
MODEL 16
REMARK VINA RESULT:    -5.632      3.670      5.507
REMARK INTER + INTRA:          -8.967
REMARK INTER:                  -8.003
REMARK INTRA:                  -0.964
REMARK UNBOUND:                -1.030
REMARK  Name = opt62.pdb
REMARK  10 active torsions:
REMARK  status: ('A' for Active; 'I' for Inactive)
REMARK    1  A    between atoms: C_6  and  O_10
REMARK    2  A    between atoms: C_7  and  C_12
REMARK    3  A    between atoms: C_13  and  O_16
REMARK    4  A    between atoms: O_16  and  C_19
REMARK    5  A    between atoms: C_20  and  O_23
REMARK    6  A    between atoms: C_22  and  O_25
REMARK    7  A    between atoms: C_24  and  C_28
REMARK    8  A    between atoms: C_26  and  O_29
REMARK    9  A    between atoms: C_27  and  O_30
REMARK   10  A    between atoms: C_28  and  O_31
REMARK                            x       y       z     vdW  Elec       q    Type
REMARK                         _______ _______ _______ _____ _____    ______ ____
ROOT
ATOM      1  O   UNL     1      16.529  19.950  42.670  0.00  0.00    +0.000 OA
ATOM      2  C   UNL     1      16.237  19.169  43.557  0.00  0.00    +0.000 A 
ATOM      3  C   UNL     1      15.232  18.098  43.428  0.00  0.00    +0.000 A 
ATOM      4  C   UNL     1      16.847  19.213  44.906  0.00  0.00    +0.000 A 
ATOM      5  C   UNL     1      15.036  17.336  44.562  0.00  0.00    +0.000 A 
ATOM      6  C   UNL     1      14.442  17.799  42.254  0.00  0.00    +0.000 A 
ATOM      7  C   UNL     1      16.549  18.473  45.703  0.00  0.00    +0.000 A 
ATOM      8  O   UNL     1      15.793  17.640  45.692  0.00  0.00    +0.000 OA
ATOM      9  C   UNL     1      14.011  16.315  44.575  0.00  0.00    +0.000 A 
ATOM     10  C   UNL     1      13.475  16.805  42.277  0.00  0.00    +0.000 A 
ATOM     11  C   UNL     1      13.243  16.071  43.430  0.00  0.00    +0.000 A 
ENDROOT
BRANCH   7  12
ATOM     12  C   UNL     1      17.485  18.451  46.878  0.00  0.00    +0.000 A 
ATOM     13  C   UNL     1      16.978  18.470  48.190  0.00  0.00    +0.000 A 
ATOM     14  C   UNL     1      18.879  18.475  46.689  0.00  0.00    +0.000 A 
ATOM     15  C   UNL     1      17.845  18.502  49.282  0.00  0.00    +0.000 A 
ATOM     16  C   UNL     1      19.737  18.510  47.788  0.00  0.00    +0.000 A 
ATOM     17  C   UNL     1      19.225  18.519  49.084  0.00  0.00    +0.000 A 
BRANCH  17  18
ATOM     18  O   UNL     1      20.084  18.551  50.148  0.00  0.00    +0.000 OA
ATOM     19  H   UNL     1      19.708  19.053  50.897  0.00  0.00    +0.000 HD
ENDBRANCH  17  18
ENDBRANCH   7  12
BRANCH   6  20
ATOM     20  O   UNL     1      14.603  18.504  41.103  0.00  0.00    +0.000 OA
ATOM     21  H   UNL     1      13.862  18.261  40.518  0.00  0.00    +0.000 HD
ENDBRANCH   6  20
BRANCH  11  22
ATOM     22  O   UNL     1      12.211  15.152  43.365  0.00  0.00    +0.000 OA
BRANCH  22  23
ATOM     23  C   UNL     1      12.192  13.882  44.050  0.00  0.00    +0.000 C 
ATOM     24  O   UNL     1      10.898  13.637  44.660  0.00  0.00    +0.000 OA
ATOM     25  C   UNL     1      12.503  12.779  43.009  0.00  0.00    +0.000 C 
ATOM     26  C   UNL     1       9.758  13.611  43.765  0.00  0.00    +0.000 C 
ATOM     27  C   UNL     1      11.315  12.579  42.023  0.00  0.00    +0.000 C 
ATOM     28  C   UNL     1       9.957  12.455  42.751  0.00  0.00    +0.000 C 
BRANCH  28  29
ATOM     29  O   UNL     1       8.916  12.457  41.761  0.00  0.00    +0.000 OA
ATOM     30  H   UNL     1       8.214  13.087  42.029  0.00  0.00    +0.000 HD
ENDBRANCH  28  29
BRANCH  25  31
ATOM     31  O   UNL     1      12.813  11.568  43.700  0.00  0.00    +0.000 OA
ATOM     32  H   UNL     1      13.617  11.206  43.299  0.00  0.00    +0.000 HD
ENDBRANCH  25  31
BRANCH  27  33
ATOM     33  O   UNL     1      11.494  11.396  41.230  0.00  0.00    +0.000 OA
ATOM     34  H   UNL     1      10.659  11.232  40.737  0.00  0.00    +0.000 HD
ENDBRANCH  27  33
BRANCH  26  35
ATOM     35  C   UNL     1       8.513  13.428  44.658  0.00  0.00    +0.000 C 
BRANCH  35  36
ATOM     36  O   UNL     1       7.344  13.935  44.015  0.00  0.00    +0.000 OA
ATOM     37  H   UNL     1       7.596  14.779  43.583  0.00  0.00    +0.000 HD
ENDBRANCH  35  36
ENDBRANCH  26  35
ENDBRANCH  22  23
ENDBRANCH  11  22
TORSDOF 10
ENDMDL
MODEL 17
REMARK VINA RESULT:    -5.567      3.040      4.994
REMARK INTER + INTRA:          -8.875
REMARK INTER:                  -7.872
REMARK INTRA:                  -1.004
REMARK UNBOUND:                -1.030
REMARK  Name = opt62.pdb
REMARK  10 active torsions:
REMARK  status: ('A' for Active; 'I' for Inactive)
REMARK    1  A    between atoms: C_6  and  O_10
REMARK    2  A    between atoms: C_7  and  C_12
REMARK    3  A    between atoms: C_13  and  O_16
REMARK    4  A    between atoms: O_16  and  C_19
REMARK    5  A    between atoms: C_20  and  O_23
REMARK    6  A    between atoms: C_22  and  O_25
REMARK    7  A    between atoms: C_24  and  C_28
REMARK    8  A    between atoms: C_26  and  O_29
REMARK    9  A    between atoms: C_27  and  O_30
REMARK   10  A    between atoms: C_28  and  O_31
REMARK                            x       y       z     vdW  Elec       q    Type
REMARK                         _______ _______ _______ _____ _____    ______ ____
ROOT
ATOM      1  O   UNL     1      17.467  14.251  42.569  0.00  0.00    +0.000 OA
ATOM      2  C   UNL     1      16.610  14.796  43.240  0.00  0.00    +0.000 A 
ATOM      3  C   UNL     1      15.210  14.341  43.332  0.00  0.00    +0.000 A 
ATOM      4  C   UNL     1      16.862  16.017  44.039  0.00  0.00    +0.000 A 
ATOM      5  C   UNL     1      14.392  15.114  44.132  0.00  0.00    +0.000 A 
ATOM      6  C   UNL     1      14.632  13.197  42.660  0.00  0.00    +0.000 A 
ATOM      7  C   UNL     1      16.041  16.494  44.646  0.00  0.00    +0.000 A 
ATOM      8  O   UNL     1      14.955  16.220  44.765  0.00  0.00    +0.000 OA
ATOM      9  C   UNL     1      12.981  14.811  44.224  0.00  0.00    +0.000 A 
ATOM     10  C   UNL     1      13.280  12.910  42.773  0.00  0.00    +0.000 A 
ATOM     11  C   UNL     1      12.447  13.713  43.536  0.00  0.00    +0.000 A 
ENDROOT
BRANCH   7  12
ATOM     12  C   UNL     1      16.540  17.507  45.636  0.00  0.00    +0.000 A 
ATOM     13  C   UNL     1      17.203  17.091  46.805  0.00  0.00    +0.000 A 
ATOM     14  C   UNL     1      16.299  18.880  45.446  0.00  0.00    +0.000 A 
ATOM     15  C   UNL     1      17.622  18.027  47.751  0.00  0.00    +0.000 A 
ATOM     16  C   UNL     1      16.719  19.807  46.400  0.00  0.00    +0.000 A 
ATOM     17  C   UNL     1      17.384  19.386  47.550  0.00  0.00    +0.000 A 
BRANCH  17  18
ATOM     18  O   UNL     1      17.789  20.310  48.471  0.00  0.00    +0.000 OA
ATOM     19  H   UNL     1      18.752  20.466  48.424  0.00  0.00    +0.000 HD
ENDBRANCH  17  18
ENDBRANCH   7  12
BRANCH   6  20
ATOM     20  O   UNL     1      15.392  12.390  41.874  0.00  0.00    +0.000 OA
ATOM     21  H   UNL     1      14.775  11.863  41.334  0.00  0.00    +0.000 HD
ENDBRANCH   6  20
BRANCH  11  22
ATOM     22  O   UNL     1      11.105  13.378  43.526  0.00  0.00    +0.000 OA
BRANCH  22  23
ATOM     23  C   UNL     1      10.265  13.376  42.353  0.00  0.00    +0.000 C 
ATOM     24  O   UNL     1       9.248  12.344  42.442  0.00  0.00    +0.000 OA
ATOM     25  C   UNL     1       9.596  14.768  42.248  0.00  0.00    +0.000 C 
ATOM     26  C   UNL     1       8.340  12.429  43.569  0.00  0.00    +0.000 C 
ATOM     27  C   UNL     1       8.522  14.967  43.358  0.00  0.00    +0.000 C 
ATOM     28  C   UNL     1       7.558  13.764  43.470  0.00  0.00    +0.000 C 
BRANCH  28  29
ATOM     29  O   UNL     1       6.731  13.959  44.628  0.00  0.00    +0.000 OA
ATOM     30  H   UNL     1       7.107  14.677  45.179  0.00  0.00    +0.000 HD
ENDBRANCH  28  29
BRANCH  25  31
ATOM     31  O   UNL     1       9.028  14.910  40.946  0.00  0.00    +0.000 OA
ATOM     32  H   UNL     1       9.410  14.217  40.388  0.00  0.00    +0.000 HD
ENDBRANCH  25  31
BRANCH  27  33
ATOM     33  O   UNL     1       7.731  16.138  43.110  0.00  0.00    +0.000 OA
ATOM     34  H   UNL     1       8.272  16.765  42.581  0.00  0.00    +0.000 HD
ENDBRANCH  27  33
BRANCH  26  35
ATOM     35  C   UNL     1       7.431  11.184  43.484  0.00  0.00    +0.000 C 
BRANCH  35  36
ATOM     36  O   UNL     1       6.140  11.528  42.980  0.00  0.00    +0.000 OA
ATOM     37  H   UNL     1       6.190  12.458  42.673  0.00  0.00    +0.000 HD
ENDBRANCH  35  36
ENDBRANCH  26  35
ENDBRANCH  22  23
ENDBRANCH  11  22
TORSDOF 10
ENDMDL
MODEL 18
REMARK VINA RESULT:    -5.232      2.582      8.965
REMARK INTER + INTRA:          -8.403
REMARK INTER:                  -7.580
REMARK INTRA:                  -0.823
REMARK UNBOUND:                -1.030
REMARK  Name = opt62.pdb
REMARK  10 active torsions:
REMARK  status: ('A' for Active; 'I' for Inactive)
REMARK    1  A    between atoms: C_6  and  O_10
REMARK    2  A    between atoms: C_7  and  C_12
REMARK    3  A    between atoms: C_13  and  O_16
REMARK    4  A    between atoms: O_16  and  C_19
REMARK    5  A    between atoms: C_20  and  O_23
REMARK    6  A    between atoms: C_22  and  O_25
REMARK    7  A    between atoms: C_24  and  C_28
REMARK    8  A    between atoms: C_26  and  O_29
REMARK    9  A    between atoms: C_27  and  O_30
REMARK   10  A    between atoms: C_28  and  O_31
REMARK                            x       y       z     vdW  Elec       q    Type
REMARK                         _______ _______ _______ _____ _____    ______ ____
ROOT
ATOM      1  O   UNL     1      11.591  11.432  43.334  0.00  0.00    +0.000 OA
ATOM      2  C   UNL     1      11.654  12.629  43.546  0.00  0.00    +0.000 A 
ATOM      3  C   UNL     1      12.908  13.368  43.780  0.00  0.00    +0.000 A 
ATOM      4  C   UNL     1      10.460  13.503  43.622  0.00  0.00    +0.000 A 
ATOM      5  C   UNL     1      12.758  14.719  44.024  0.00  0.00    +0.000 A 
ATOM      6  C   UNL     1      14.244  12.811  43.795  0.00  0.00    +0.000 A 
ATOM      7  C   UNL     1      10.560  14.607  43.823  0.00  0.00    +0.000 A 
ATOM      8  O   UNL     1      11.467  15.243  44.020  0.00  0.00    +0.000 OA
ATOM      9  C   UNL     1      13.914  15.524  44.354  0.00  0.00    +0.000 A 
ATOM     10  C   UNL     1      15.344  13.601  44.096  0.00  0.00    +0.000 A 
ATOM     11  C   UNL     1      15.190  14.947  44.389  0.00  0.00    +0.000 A 
ENDROOT
BRANCH   7  12
ATOM     12  C   UNL     1       9.304  15.382  43.543  0.00  0.00    +0.000 A 
ATOM     13  C   UNL     1       8.091  14.709  43.308  0.00  0.00    +0.000 A 
ATOM     14  C   UNL     1       9.330  16.785  43.446  0.00  0.00    +0.000 A 
ATOM     15  C   UNL     1       6.935  15.424  42.996  0.00  0.00    +0.000 A 
ATOM     16  C   UNL     1       8.169  17.490  43.130  0.00  0.00    +0.000 A 
ATOM     17  C   UNL     1       6.970  16.815  42.910  0.00  0.00    +0.000 A 
BRANCH  17  18
ATOM     18  O   UNL     1       5.843  17.525  42.603  0.00  0.00    +0.000 OA
ATOM     19  H   UNL     1       5.636  17.476  41.650  0.00  0.00    +0.000 HD
ENDBRANCH  17  18
ENDBRANCH   7  12
BRANCH   6  20
ATOM     20  O   UNL     1      14.455  11.492  43.545  0.00  0.00    +0.000 OA
ATOM     21  H   UNL     1      15.274  11.434  43.020  0.00  0.00    +0.000 HD
ENDBRANCH   6  20
BRANCH  11  22
ATOM     22  O   UNL     1      16.343  15.625  44.742  0.00  0.00    +0.000 OA
BRANCH  22  23
ATOM     23  C   UNL     1      16.933  16.700  43.981  0.00  0.00    +0.000 C 
ATOM     24  O   UNL     1      18.216  17.089  44.537  0.00  0.00    +0.000 OA
ATOM     25  C   UNL     1      17.116  16.205  42.526  0.00  0.00    +0.000 C 
ATOM     26  C   UNL     1      19.231  16.055  44.599  0.00  0.00    +0.000 C 
ATOM     27  C   UNL     1      18.249  15.141  42.427  0.00  0.00    +0.000 C 
ATOM     28  C   UNL     1      19.539  15.582  43.155  0.00  0.00    +0.000 C 
BRANCH  28  29
ATOM     29  O   UNL     1      20.450  14.471  43.164  0.00  0.00    +0.000 OA
ATOM     30  H   UNL     1      21.304  14.754  43.553  0.00  0.00    +0.000 HD
ENDBRANCH  28  29
BRANCH  25  31
ATOM     31  O   UNL     1      17.385  17.328  41.686  0.00  0.00    +0.000 OA
ATOM     32  H   UNL     1      18.093  17.838  42.106  0.00  0.00    +0.000 HD
ENDBRANCH  25  31
BRANCH  27  33
ATOM     33  O   UNL     1      18.591  14.873  41.059  0.00  0.00    +0.000 OA
ATOM     34  H   UNL     1      18.865  15.720  40.642  0.00  0.00    +0.000 HD
ENDBRANCH  27  33
BRANCH  26  35
ATOM     35  C   UNL     1      20.450  16.690  45.303  0.00  0.00    +0.000 C 
BRANCH  35  36
ATOM     36  O   UNL     1      20.040  17.487  46.414  0.00  0.00    +0.000 OA
ATOM     37  H   UNL     1      20.843  17.933  46.760  0.00  0.00    +0.000 HD
ENDBRANCH  35  36
ENDBRANCH  26  35
ENDBRANCH  22  23
ENDBRANCH  11  22
TORSDOF 10
ENDMDL
MODEL 19
REMARK VINA RESULT:    -5.222      2.493      8.466
REMARK INTER + INTRA:          -8.389
REMARK INTER:                  -7.314
REMARK INTRA:                  -1.075
REMARK UNBOUND:                -1.030
REMARK  Name = opt62.pdb
REMARK  10 active torsions:
REMARK  status: ('A' for Active; 'I' for Inactive)
REMARK    1  A    between atoms: C_6  and  O_10
REMARK    2  A    between atoms: C_7  and  C_12
REMARK    3  A    between atoms: C_13  and  O_16
REMARK    4  A    between atoms: O_16  and  C_19
REMARK    5  A    between atoms: C_20  and  O_23
REMARK    6  A    between atoms: C_22  and  O_25
REMARK    7  A    between atoms: C_24  and  C_28
REMARK    8  A    between atoms: C_26  and  O_29
REMARK    9  A    between atoms: C_27  and  O_30
REMARK   10  A    between atoms: C_28  and  O_31
REMARK                            x       y       z     vdW  Elec       q    Type
REMARK                         _______ _______ _______ _____ _____    ______ ____
ROOT
ATOM      1  O   UNL     1      11.452  11.404  43.540  0.00  0.00    +0.000 OA
ATOM      2  C   UNL     1      11.734  12.550  43.240  0.00  0.00    +0.000 A 
ATOM      3  C   UNL     1      13.065  13.157  43.427  0.00  0.00    +0.000 A 
ATOM      4  C   UNL     1      10.755  13.500  42.665  0.00  0.00    +0.000 A 
ATOM      5  C   UNL     1      13.168  14.478  43.042  0.00  0.00    +0.000 A 
ATOM      6  C   UNL     1      14.233  12.510  43.984  0.00  0.00    +0.000 A 
ATOM      7  C   UNL     1      11.053  14.555  42.402  0.00  0.00    +0.000 A 
ATOM      8  O   UNL     1      12.033  15.096  42.519  0.00  0.00    +0.000 OA
ATOM      9  C   UNL     1      14.403  15.199  43.262  0.00  0.00    +0.000 A 
ATOM     10  C   UNL     1      15.416  13.210  44.172  0.00  0.00    +0.000 A 
ATOM     11  C   UNL     1      15.507  14.551  43.831  0.00  0.00    +0.000 A 
ENDROOT
BRANCH   7  12
ATOM     12  C   UNL     1      10.048  15.264  41.540  0.00  0.00    +0.000 A 
ATOM     13  C   UNL     1       8.695  14.882  41.566  0.00  0.00    +0.000 A 
ATOM     14  C   UNL     1      10.451  16.275  40.648  0.00  0.00    +0.000 A 
ATOM     15  C   UNL     1       7.769  15.505  40.729  0.00  0.00    +0.000 A 
ATOM     16  C   UNL     1       9.517  16.888  39.813  0.00  0.00    +0.000 A 
ATOM     17  C   UNL     1       8.176  16.510  39.853  0.00  0.00    +0.000 A 
BRANCH  17  18
ATOM     18  O   UNL     1       7.277  17.125  39.027  0.00  0.00    +0.000 OA
ATOM     19  H   UNL     1       6.885  16.495  38.392  0.00  0.00    +0.000 HD
ENDBRANCH  17  18
ENDBRANCH   7  12
BRANCH   6  20
ATOM     20  O   UNL     1      14.197  11.206  44.365  0.00  0.00    +0.000 OA
ATOM     21  H   UNL     1      14.110  10.678  43.550  0.00  0.00    +0.000 HD
ENDBRANCH   6  20
BRANCH  11  22
ATOM     22  O   UNL     1      16.708  15.170  44.124  0.00  0.00    +0.000 OA
BRANCH  22  23
ATOM     23  C   UNL     1      18.011  14.604  43.872  0.00  0.00    +0.000 C 
ATOM     24  O   UNL     1      18.271  14.508  42.447  0.00  0.00    +0.000 OA
ATOM     25  C   UNL     1      19.063  15.523  44.540  0.00  0.00    +0.000 C 
ATOM     26  C   UNL     1      18.237  15.750  41.700  0.00  0.00    +0.000 C 
ATOM     27  C   UNL     1      19.198  16.876  43.782  0.00  0.00    +0.000 C 
ATOM     28  C   UNL     1      19.342  16.686  42.254  0.00  0.00    +0.000 C 
BRANCH  28  29
ATOM     29  O   UNL     1      19.276  17.980  41.634  0.00  0.00    +0.000 OA
ATOM     30  H   UNL     1      19.152  18.665  42.323  0.00  0.00    +0.000 HD
ENDBRANCH  28  29
BRANCH  25  31
ATOM     31  O   UNL     1      20.312  14.832  44.593  0.00  0.00    +0.000 OA
ATOM     32  H   UNL     1      20.983  15.471  44.873  0.00  0.00    +0.000 HD
ENDBRANCH  25  31
BRANCH  27  33
ATOM     33  O   UNL     1      20.340  17.615  44.239  0.00  0.00    +0.000 OA
ATOM     34  H   UNL     1      20.952  17.731  43.479  0.00  0.00    +0.000 HD
ENDBRANCH  27  33
BRANCH  26  35
ATOM     35  C   UNL     1      18.450  15.369  40.220  0.00  0.00    +0.000 C 
BRANCH  35  36
ATOM     36  O   UNL     1      18.450  16.530  39.388  0.00  0.00    +0.000 OA
ATOM     37  H   UNL     1      19.124  17.143  39.750  0.00  0.00    +0.000 HD
ENDBRANCH  35  36
ENDBRANCH  26  35
ENDBRANCH  22  23
ENDBRANCH  11  22
TORSDOF 10
ENDMDL
