MODEL 1
REMARK VINA RESULT:    -4.836      0.000      0.000
REMARK INTER + INTRA:          -5.603
REMARK INTER:                  -5.543
REMARK INTRA:                  -0.060
REMARK UNBOUND:                -0.060
REMARK  Name = opt34.pdb
REMARK  4 active torsions:
REMARK  status: ('A' for Active; 'I' for Inactive)
REMARK    1  A    between atoms: C_2  and  C_3
REMARK    2  A    between atoms: C_6  and  O_8
REMARK    3  A    between atoms: O_8  and  C_10
REMARK    4  A    between atoms: C_9  and  O_11
REMARK                            x       y       z     vdW  Elec       q    Type
REMARK                         _______ _______ _______ _____ _____    ______ ____
ROOT
ATOM      1  C   UNL     1      13.584  14.640  44.485  0.00  0.00    +0.000 A 
ATOM      2  C   UNL     1      12.726  13.617  44.075  0.00  0.00    +0.000 A 
ATOM      3  C   UNL     1      14.893  14.338  44.868  0.00  0.00    +0.000 A 
ATOM      4  C   UNL     1      13.176  12.293  44.045  0.00  0.00    +0.000 A 
ATOM      5  C   UNL     1      15.343  13.021  44.842  0.00  0.00    +0.000 A 
ATOM      6  C   UNL     1      14.485  12.004  44.431  0.00  0.00    +0.000 A 
ENDROOT
BRANCH   1   8
ATOM      7  O   UNL     1      12.240  16.475  45.246  0.00  0.00    +0.000 OA
ATOM      8  C   UNL     1      13.119  16.057  44.520  0.00  0.00    +0.000 C 
ENDBRANCH   1   8
BRANCH   4   9
ATOM      9  O   UNL     1      12.376  11.233  43.642  0.00  0.00    +0.000 OA
ATOM     10  C   UNL     1      11.380  11.345  42.599  0.00  0.00    +0.000 C 
ENDBRANCH   4   9
BRANCH   6  11
ATOM     11  O   UNL     1      14.908  10.712  44.400  0.00  0.00    +0.000 OA
ATOM     12  H   UNL     1      15.851  10.747  44.136  0.00  0.00    +0.000 HD
ENDBRANCH   6  11
TORSDOF 3
ENDMDL
MODEL 2
REMARK VINA RESULT:    -4.445      1.039      1.039
REMARK INTER + INTRA:          -5.155
REMARK INTER:                  -5.092
REMARK INTRA:                  -0.063
REMARK UNBOUND:                -0.060
REMARK  Name = opt34.pdb
REMARK  4 active torsions:
REMARK  status: ('A' for Active; 'I' for Inactive)
REMARK    1  A    between atoms: C_2  and  C_3
REMARK    2  A    between atoms: C_6  and  O_8
REMARK    3  A    between atoms: O_8  and  C_10
REMARK    4  A    between atoms: C_9  and  O_11
REMARK                            x       y       z     vdW  Elec       q    Type
REMARK                         _______ _______ _______ _____ _____    ______ ____
ROOT
ATOM      1  C   UNL     1      14.015  14.588  43.896  0.00  0.00    +0.000 A 
ATOM      2  C   UNL     1      13.015  13.621  43.760  0.00  0.00    +0.000 A 
ATOM      3  C   UNL     1      15.313  14.202  44.234  0.00  0.00    +0.000 A 
ATOM      4  C   UNL     1      13.314  12.269  43.961  0.00  0.00    +0.000 A 
ATOM      5  C   UNL     1      15.613  12.858  44.437  0.00  0.00    +0.000 A 
ATOM      6  C   UNL     1      14.615  11.897  44.300  0.00  0.00    +0.000 A 
ENDROOT
BRANCH   1   8
ATOM      7  O   UNL     1      13.663  16.573  42.596  0.00  0.00    +0.000 OA
ATOM      8  C   UNL     1      13.712  16.033  43.683  0.00  0.00    +0.000 C 
ENDBRANCH   1   8
BRANCH   4   9
ATOM      9  O   UNL     1      12.369  11.261  43.835  0.00  0.00    +0.000 OA
ATOM     10  C   UNL     1      11.412  11.204  42.752  0.00  0.00    +0.000 C 
ENDBRANCH   4   9
BRANCH   6  11
ATOM     11  O   UNL     1      14.891  10.580  44.495  0.00  0.00    +0.000 OA
ATOM     12  H   UNL     1      14.886  10.172  43.604  0.00  0.00    +0.000 HD
ENDBRANCH   6  11
TORSDOF 3
ENDMDL
MODEL 3
REMARK VINA RESULT:    -4.160      2.393      3.630
REMARK INTER + INTRA:          -4.828
REMARK INTER:                  -4.754
REMARK INTRA:                  -0.074
REMARK UNBOUND:                -0.060
REMARK  Name = opt34.pdb
REMARK  4 active torsions:
REMARK  status: ('A' for Active; 'I' for Inactive)
REMARK    1  A    between atoms: C_2  and  C_3
REMARK    2  A    between atoms: C_6  and  O_8
REMARK    3  A    between atoms: O_8  and  C_10
REMARK    4  A    between atoms: C_9  and  O_11
REMARK                            x       y       z     vdW  Elec       q    Type
REMARK                         _______ _______ _______ _____ _____    ______ ____
ROOT
ATOM      1  C   UNL     1      12.782  13.495  43.015  0.00  0.00    +0.000 A 
ATOM      2  C   UNL     1      14.085  13.439  42.514  0.00  0.00    +0.000 A 
ATOM      3  C   UNL     1      12.565  13.465  44.394  0.00  0.00    +0.000 A 
ATOM      4  C   UNL     1      15.171  13.357  43.392  0.00  0.00    +0.000 A 
ATOM      5  C   UNL     1      13.644  13.381  45.270  0.00  0.00    +0.000 A 
ATOM      6  C   UNL     1      14.941  13.326  44.768  0.00  0.00    +0.000 A 
ENDROOT
BRANCH   1   8
ATOM      7  O   UNL     1      11.346  12.763  41.238  0.00  0.00    +0.000 OA
ATOM      8  C   UNL     1      11.614  13.585  42.091  0.00  0.00    +0.000 C 
ENDBRANCH   1   8
BRANCH   4   9
ATOM      9  O   UNL     1      16.489  13.305  42.959  0.00  0.00    +0.000 OA
ATOM     10  C   UNL     1      17.203  14.458  42.458  0.00  0.00    +0.000 C 
ENDBRANCH   4   9
BRANCH   6  11
ATOM     11  O   UNL     1      16.006  13.243  45.609  0.00  0.00    +0.000 OA
ATOM     12  H   UNL     1      16.173  14.158  45.919  0.00  0.00    +0.000 HD
ENDBRANCH   6  11
TORSDOF 3
ENDMDL
MODEL 4
REMARK VINA RESULT:    -4.129      1.685      1.842
REMARK INTER + INTRA:          -4.792
REMARK INTER:                  -4.718
REMARK INTRA:                  -0.074
REMARK UNBOUND:                -0.060
REMARK  Name = opt34.pdb
REMARK  4 active torsions:
REMARK  status: ('A' for Active; 'I' for Inactive)
REMARK    1  A    between atoms: C_2  and  C_3
REMARK    2  A    between atoms: C_6  and  O_8
REMARK    3  A    between atoms: O_8  and  C_10
REMARK    4  A    between atoms: C_9  and  O_11
REMARK                            x       y       z     vdW  Elec       q    Type
REMARK                         _______ _______ _______ _____ _____    ______ ____
ROOT
ATOM      1  C   UNL     1      14.654  15.477  44.629  0.00  0.00    +0.000 A 
ATOM      2  C   UNL     1      13.311  15.091  44.631  0.00  0.00    +0.000 A 
ATOM      3  C   UNL     1      15.655  14.508  44.711  0.00  0.00    +0.000 A 
ATOM      4  C   UNL     1      12.969  13.737  44.712  0.00  0.00    +0.000 A 
ATOM      5  C   UNL     1      15.318  13.159  44.795  0.00  0.00    +0.000 A 
ATOM      6  C   UNL     1      13.979  12.779  44.795  0.00  0.00    +0.000 A 
ENDROOT
BRANCH   1   8
ATOM      7  O   UNL     1      15.282  17.623  45.497  0.00  0.00    +0.000 OA
ATOM      8  C   UNL     1      15.033  16.917  44.541  0.00  0.00    +0.000 C 
ENDBRANCH   1   8
BRANCH   4   9
ATOM      9  O   UNL     1      11.656  13.289  44.712  0.00  0.00    +0.000 OA
ATOM     10  C   UNL     1      10.812  13.311  43.537  0.00  0.00    +0.000 C 
ENDBRANCH   4   9
BRANCH   6  11
ATOM     11  O   UNL     1      13.633  11.466  44.876  0.00  0.00    +0.000 OA
ATOM     12  H   UNL     1      13.190  11.254  44.028  0.00  0.00    +0.000 HD
ENDBRANCH   6  11
TORSDOF 3
ENDMDL
MODEL 5
REMARK VINA RESULT:    -3.989      2.412      3.078
REMARK INTER + INTRA:          -4.632
REMARK INTER:                  -4.559
REMARK INTRA:                  -0.073
REMARK UNBOUND:                -0.060
REMARK  Name = opt34.pdb
REMARK  4 active torsions:
REMARK  status: ('A' for Active; 'I' for Inactive)
REMARK    1  A    between atoms: C_2  and  C_3
REMARK    2  A    between atoms: C_6  and  O_8
REMARK    3  A    between atoms: O_8  and  C_10
REMARK    4  A    between atoms: C_9  and  O_11
REMARK                            x       y       z     vdW  Elec       q    Type
REMARK                         _______ _______ _______ _____ _____    ______ ____
ROOT
ATOM      1  C   UNL     1      15.457  15.957  43.532  0.00  0.00    +0.000 A 
ATOM      2  C   UNL     1      15.157  14.601  43.376  0.00  0.00    +0.000 A 
ATOM      3  C   UNL     1      16.205  16.382  44.631  0.00  0.00    +0.000 A 
ATOM      4  C   UNL     1      15.607  13.670  44.318  0.00  0.00    +0.000 A 
ATOM      5  C   UNL     1      16.652  15.458  45.572  0.00  0.00    +0.000 A 
ATOM      6  C   UNL     1      16.352  14.107  45.413  0.00  0.00    +0.000 A 
ENDROOT
BRANCH   1   8
ATOM      7  O   UNL     1      14.340  16.695  41.541  0.00  0.00    +0.000 OA
ATOM      8  C   UNL     1      14.985  16.962  42.534  0.00  0.00    +0.000 C 
ENDBRANCH   1   8
BRANCH   4   9
ATOM      9  O   UNL     1      15.348  12.311  44.217  0.00  0.00    +0.000 OA
ATOM     10  C   UNL     1      14.012  11.757  44.211  0.00  0.00    +0.000 C 
ENDBRANCH   4   9
BRANCH   6  11
ATOM     11  O   UNL     1      16.781  13.192  46.322  0.00  0.00    +0.000 OA
ATOM     12  H   UNL     1      16.927  13.690  47.154  0.00  0.00    +0.000 HD
ENDBRANCH   6  11
TORSDOF 3
ENDMDL
MODEL 6
REMARK VINA RESULT:    -3.977      1.610      3.165
REMARK INTER + INTRA:          -4.618
REMARK INTER:                  -4.563
REMARK INTRA:                  -0.055
REMARK UNBOUND:                -0.060
REMARK  Name = opt34.pdb
REMARK  4 active torsions:
REMARK  status: ('A' for Active; 'I' for Inactive)
REMARK    1  A    between atoms: C_2  and  C_3
REMARK    2  A    between atoms: C_6  and  O_8
REMARK    3  A    between atoms: O_8  and  C_10
REMARK    4  A    between atoms: C_9  and  O_11
REMARK                            x       y       z     vdW  Elec       q    Type
REMARK                         _______ _______ _______ _____ _____    ______ ____
ROOT
ATOM      1  C   UNL     1      13.084  15.921  44.667  0.00  0.00    +0.000 A 
ATOM      2  C   UNL     1      14.370  15.401  44.839  0.00  0.00    +0.000 A 
ATOM      3  C   UNL     1      11.989  15.059  44.601  0.00  0.00    +0.000 A 
ATOM      4  C   UNL     1      14.559  14.019  44.946  0.00  0.00    +0.000 A 
ATOM      5  C   UNL     1      12.174  13.683  44.705  0.00  0.00    +0.000 A 
ATOM      6  C   UNL     1      13.457  13.168  44.876  0.00  0.00    +0.000 A 
ENDROOT
BRANCH   1   8
ATOM      7  O   UNL     1      12.681  18.136  45.496  0.00  0.00    +0.000 OA
ATOM      8  C   UNL     1      12.866  17.393  44.554  0.00  0.00    +0.000 C 
ENDBRANCH   1   8
BRANCH   4   9
ATOM      9  O   UNL     1      15.808  13.441  45.124  0.00  0.00    +0.000 OA
ATOM     10  C   UNL     1      17.026  14.210  45.248  0.00  0.00    +0.000 C 
ENDBRANCH   4   9
BRANCH   6  11
ATOM     11  O   UNL     1      13.656  11.827  44.979  0.00  0.00    +0.000 OA
ATOM     12  H   UNL     1      12.766  11.434  45.103  0.00  0.00    +0.000 HD
ENDBRANCH   6  11
TORSDOF 3
ENDMDL
MODEL 7
REMARK VINA RESULT:    -3.966      1.346      2.943
REMARK INTER + INTRA:          -4.605
REMARK INTER:                  -4.538
REMARK INTRA:                  -0.067
REMARK UNBOUND:                -0.060
REMARK  Name = opt34.pdb
REMARK  4 active torsions:
REMARK  status: ('A' for Active; 'I' for Inactive)
REMARK    1  A    between atoms: C_2  and  C_3
REMARK    2  A    between atoms: C_6  and  O_8
REMARK    3  A    between atoms: O_8  and  C_10
REMARK    4  A    between atoms: C_9  and  O_11
REMARK                            x       y       z     vdW  Elec       q    Type
REMARK                         _______ _______ _______ _____ _____    ______ ____
ROOT
ATOM      1  C   UNL     1      12.485  14.541  44.033  0.00  0.00    +0.000 A 
ATOM      2  C   UNL     1      13.707  14.593  44.708  0.00  0.00    +0.000 A 
ATOM      3  C   UNL     1      12.016  13.322  43.538  0.00  0.00    +0.000 A 
ATOM      4  C   UNL     1      14.460  13.428  44.889  0.00  0.00    +0.000 A 
ATOM      5  C   UNL     1      12.764  12.161  43.715  0.00  0.00    +0.000 A 
ATOM      6  C   UNL     1      13.981  12.218  44.389  0.00  0.00    +0.000 A 
ENDROOT
BRANCH   1   8
ATOM      7  O   UNL     1      11.581  16.678  44.641  0.00  0.00    +0.000 OA
ATOM      8  C   UNL     1      11.670  15.775  43.834  0.00  0.00    +0.000 C 
ENDBRANCH   1   8
BRANCH   4   9
ATOM      9  O   UNL     1      15.677  13.413  45.555  0.00  0.00    +0.000 OA
ATOM     10  C   UNL     1      16.755  14.330  45.255  0.00  0.00    +0.000 C 
ENDBRANCH   4   9
BRANCH   6  11
ATOM     11  O   UNL     1      14.724  11.093  44.570  0.00  0.00    +0.000 OA
ATOM     12  H   UNL     1      14.236  10.554  45.227  0.00  0.00    +0.000 HD
ENDBRANCH   6  11
TORSDOF 3
ENDMDL
MODEL 8
REMARK VINA RESULT:    -3.833      1.927      3.677
REMARK INTER + INTRA:          -4.453
REMARK INTER:                  -4.379
REMARK INTRA:                  -0.075
REMARK UNBOUND:                -0.060
REMARK  Name = opt34.pdb
REMARK  4 active torsions:
REMARK  status: ('A' for Active; 'I' for Inactive)
REMARK    1  A    between atoms: C_2  and  C_3
REMARK    2  A    between atoms: C_6  and  O_8
REMARK    3  A    between atoms: O_8  and  C_10
REMARK    4  A    between atoms: C_9  and  O_11
REMARK                            x       y       z     vdW  Elec       q    Type
REMARK                         _______ _______ _______ _____ _____    ______ ____
ROOT
ATOM      1  C   UNL     1      15.316  14.093  44.664  0.00  0.00    +0.000 A 
ATOM      2  C   UNL     1      14.393  15.142  44.635  0.00  0.00    +0.000 A 
ATOM      3  C   UNL     1      14.866  12.772  44.636  0.00  0.00    +0.000 A 
ATOM      4  C   UNL     1      13.022  14.870  44.576  0.00  0.00    +0.000 A 
ATOM      5  C   UNL     1      13.502  12.497  44.580  0.00  0.00    +0.000 A 
ATOM      6  C   UNL     1      12.586  13.546  44.550  0.00  0.00    +0.000 A 
ENDROOT
BRANCH   1   8
ATOM      7  O   UNL     1      17.474  14.193  45.707  0.00  0.00    +0.000 OA
ATOM      8  C   UNL     1      16.781  14.367  44.725  0.00  0.00    +0.000 C 
ENDBRANCH   1   8
BRANCH   4   9
ATOM      9  O   UNL     1      12.057  15.866  44.539  0.00  0.00    +0.000 OA
ATOM     10  C   UNL     1      11.806  16.682  43.371  0.00  0.00    +0.000 C 
ENDBRANCH   4   9
BRANCH   6  11
ATOM     11  O   UNL     1      11.251  13.295  44.496  0.00  0.00    +0.000 OA
ATOM     12  H   UNL     1      10.867  13.723  45.289  0.00  0.00    +0.000 HD
ENDBRANCH   6  11
TORSDOF 3
ENDMDL
MODEL 9
REMARK VINA RESULT:    -3.833      1.844      3.899
REMARK INTER + INTRA:          -4.453
REMARK INTER:                  -4.378
REMARK INTRA:                  -0.075
REMARK UNBOUND:                -0.060
REMARK  Name = opt34.pdb
REMARK  4 active torsions:
REMARK  status: ('A' for Active; 'I' for Inactive)
REMARK    1  A    between atoms: C_2  and  C_3
REMARK    2  A    between atoms: C_6  and  O_8
REMARK    3  A    between atoms: O_8  and  C_10
REMARK    4  A    between atoms: C_9  and  O_11
REMARK                            x       y       z     vdW  Elec       q    Type
REMARK                         _______ _______ _______ _____ _____    ______ ____
ROOT
ATOM      1  C   UNL     1      12.322  12.486  42.667  0.00  0.00    +0.000 A 
ATOM      2  C   UNL     1      12.953  13.728  42.778  0.00  0.00    +0.000 A 
ATOM      3  C   UNL     1      12.785  11.402  43.414  0.00  0.00    +0.000 A 
ATOM      4  C   UNL     1      14.045  13.886  43.638  0.00  0.00    +0.000 A 
ATOM      5  C   UNL     1      13.874  11.556  44.269  0.00  0.00    +0.000 A 
ATOM      6  C   UNL     1      14.499  12.795  44.378  0.00  0.00    +0.000 A 
ENDROOT
BRANCH   1   8
ATOM      7  O   UNL     1      11.174  11.640  40.738  0.00  0.00    +0.000 OA
ATOM      8  C   UNL     1      11.155  12.302  41.756  0.00  0.00    +0.000 C 
ENDBRANCH   1   8
BRANCH   4   9
ATOM      9  O   UNL     1      14.710  15.094  43.797  0.00  0.00    +0.000 OA
ATOM     10  C   UNL     1      14.158  16.210  44.533  0.00  0.00    +0.000 C 
ENDBRANCH   4   9
BRANCH   6  11
ATOM     11  O   UNL     1      15.563  12.962  45.207  0.00  0.00    +0.000 OA
ATOM     12  H   UNL     1      16.358  12.919  44.634  0.00  0.00    +0.000 HD
ENDBRANCH   6  11
TORSDOF 3
ENDMDL
MODEL 10
REMARK VINA RESULT:    -3.824      1.822      3.114
REMARK INTER + INTRA:          -4.443
REMARK INTER:                  -4.382
REMARK INTRA:                  -0.060
REMARK UNBOUND:                -0.060
REMARK  Name = opt34.pdb
REMARK  4 active torsions:
REMARK  status: ('A' for Active; 'I' for Inactive)
REMARK    1  A    between atoms: C_2  and  C_3
REMARK    2  A    between atoms: C_6  and  O_8
REMARK    3  A    between atoms: O_8  and  C_10
REMARK    4  A    between atoms: C_9  and  O_11
REMARK                            x       y       z     vdW  Elec       q    Type
REMARK                         _______ _______ _______ _____ _____    ______ ____
ROOT
ATOM      1  C   UNL     1      13.823  15.849  44.566  0.00  0.00    +0.000 A 
ATOM      2  C   UNL     1      13.910  14.459  44.457  0.00  0.00    +0.000 A 
ATOM      3  C   UNL     1      12.574  16.459  44.700  0.00  0.00    +0.000 A 
ATOM      4  C   UNL     1      12.749  13.679  44.485  0.00  0.00    +0.000 A 
ATOM      5  C   UNL     1      11.417  15.685  44.726  0.00  0.00    +0.000 A 
ATOM      6  C   UNL     1      11.508  14.300  44.618  0.00  0.00    +0.000 A 
ENDROOT
BRANCH   1   8
ATOM      7  O   UNL     1      15.099  17.852  44.905  0.00  0.00    +0.000 OA
ATOM      8  C   UNL     1      15.052  16.695  44.540  0.00  0.00    +0.000 C 
ENDBRANCH   1   8
BRANCH   4   9
ATOM      9  O   UNL     1      12.769  12.294  44.389  0.00  0.00    +0.000 OA
ATOM     10  C   UNL     1      13.984  11.530  44.215  0.00  0.00    +0.000 C 
ENDBRANCH   4   9
BRANCH   6  11
ATOM     11  O   UNL     1      10.388  13.529  44.641  0.00  0.00    +0.000 OA
ATOM     12  H   UNL     1       9.662  14.122  44.927  0.00  0.00    +0.000 HD
ENDBRANCH   6  11
TORSDOF 3
ENDMDL
MODEL 11
REMARK VINA RESULT:    -3.818      2.773      3.242
REMARK INTER + INTRA:          -4.436
REMARK INTER:                  -4.366
REMARK INTRA:                  -0.070
REMARK UNBOUND:                -0.060
REMARK  Name = opt34.pdb
REMARK  4 active torsions:
REMARK  status: ('A' for Active; 'I' for Inactive)
REMARK    1  A    between atoms: C_2  and  C_3
REMARK    2  A    between atoms: C_6  and  O_8
REMARK    3  A    between atoms: O_8  and  C_10
REMARK    4  A    between atoms: C_9  and  O_11
REMARK                            x       y       z     vdW  Elec       q    Type
REMARK                         _______ _______ _______ _____ _____    ______ ____
ROOT
ATOM      1  C   UNL     1      16.457  14.247  42.864  0.00  0.00    +0.000 A 
ATOM      2  C   UNL     1      15.292  13.686  42.333  0.00  0.00    +0.000 A 
ATOM      3  C   UNL     1      16.706  14.165  44.235  0.00  0.00    +0.000 A 
ATOM      4  C   UNL     1      14.378  13.042  43.173  0.00  0.00    +0.000 A 
ATOM      5  C   UNL     1      15.796  13.526  45.074  0.00  0.00    +0.000 A 
ATOM      6  C   UNL     1      14.637  12.968  44.541  0.00  0.00    +0.000 A 
ENDROOT
BRANCH   1   8
ATOM      7  O   UNL     1      17.375  14.967  40.768  0.00  0.00    +0.000 OA
ATOM      8  C   UNL     1      17.443  14.936  41.980  0.00  0.00    +0.000 C 
ENDBRANCH   1   8
BRANCH   4   9
ATOM      9  O   UNL     1      13.208  12.459  42.708  0.00  0.00    +0.000 OA
ATOM     10  C   UNL     1      12.015  13.217  42.399  0.00  0.00    +0.000 C 
ENDBRANCH   4   9
BRANCH   6  11
ATOM     11  O   UNL     1      13.739  12.341  45.346  0.00  0.00    +0.000 OA
ATOM     12  H   UNL     1      14.209  11.564  45.717  0.00  0.00    +0.000 HD
ENDBRANCH   6  11
TORSDOF 3
ENDMDL
MODEL 12
REMARK VINA RESULT:    -3.767      2.449      4.725
REMARK INTER + INTRA:          -4.377
REMARK INTER:                  -4.335
REMARK INTRA:                  -0.043
REMARK UNBOUND:                -0.060
REMARK  Name = opt34.pdb
REMARK  4 active torsions:
REMARK  status: ('A' for Active; 'I' for Inactive)
REMARK    1  A    between atoms: C_2  and  C_3
REMARK    2  A    between atoms: C_6  and  O_8
REMARK    3  A    between atoms: O_8  and  C_10
REMARK    4  A    between atoms: C_9  and  O_11
REMARK                            x       y       z     vdW  Elec       q    Type
REMARK                         _______ _______ _______ _____ _____    ______ ____
ROOT
ATOM      1  C   UNL     1      14.218  13.600  44.376  0.00  0.00    +0.000 A 
ATOM      2  C   UNL     1      15.568  13.413  44.685  0.00  0.00    +0.000 A 
ATOM      3  C   UNL     1      13.671  14.884  44.397  0.00  0.00    +0.000 A 
ATOM      4  C   UNL     1      16.371  14.511  45.013  0.00  0.00    +0.000 A 
ATOM      5  C   UNL     1      14.467  15.978  44.726  0.00  0.00    +0.000 A 
ATOM      6  C   UNL     1      15.812  15.789  45.032  0.00  0.00    +0.000 A 
ENDROOT
BRANCH   1   8
ATOM      7  O   UNL     1      13.448  11.332  44.511  0.00  0.00    +0.000 OA
ATOM      8  C   UNL     1      13.350  12.439  44.021  0.00  0.00    +0.000 C 
ENDBRANCH   1   8
BRANCH   4   9
ATOM      9  O   UNL     1      17.718  14.394  45.324  0.00  0.00    +0.000 OA
ATOM     10  C   UNL     1      18.765  14.409  44.325  0.00  0.00    +0.000 C 
ENDBRANCH   4   9
BRANCH   6  11
ATOM     11  O   UNL     1      16.603  16.846  45.356  0.00  0.00    +0.000 OA
ATOM     12  H   UNL     1      17.490  16.470  45.537  0.00  0.00    +0.000 HD
ENDBRANCH   6  11
TORSDOF 3
ENDMDL
MODEL 13
REMARK VINA RESULT:    -3.755      2.114      2.283
REMARK INTER + INTRA:          -4.364
REMARK INTER:                  -4.292
REMARK INTRA:                  -0.072
REMARK UNBOUND:                -0.060
REMARK  Name = opt34.pdb
REMARK  4 active torsions:
REMARK  status: ('A' for Active; 'I' for Inactive)
REMARK    1  A    between atoms: C_2  and  C_3
REMARK    2  A    between atoms: C_6  and  O_8
REMARK    3  A    between atoms: O_8  and  C_10
REMARK    4  A    between atoms: C_9  and  O_11
REMARK                            x       y       z     vdW  Elec       q    Type
REMARK                         _______ _______ _______ _____ _____    ______ ____
ROOT
ATOM      1  C   UNL     1      14.423  15.292  43.302  0.00  0.00    +0.000 A 
ATOM      2  C   UNL     1      13.150  15.089  43.843  0.00  0.00    +0.000 A 
ATOM      3  C   UNL     1      15.344  14.243  43.283  0.00  0.00    +0.000 A 
ATOM      4  C   UNL     1      12.799  13.839  44.363  0.00  0.00    +0.000 A 
ATOM      5  C   UNL     1      14.999  12.998  43.802  0.00  0.00    +0.000 A 
ATOM      6  C   UNL     1      13.729  12.800  44.340  0.00  0.00    +0.000 A 
ENDROOT
BRANCH   1   8
ATOM      7  O   UNL     1      14.532  17.001  41.623  0.00  0.00    +0.000 OA
ATOM      8  C   UNL     1      14.811  16.619  42.741  0.00  0.00    +0.000 C 
ENDBRANCH   1   8
BRANCH   4   9
ATOM      9  O   UNL     1      11.551  13.573  44.908  0.00  0.00    +0.000 OA
ATOM     10  C   UNL     1      10.328  13.601  44.137  0.00  0.00    +0.000 C 
ENDBRANCH   4   9
BRANCH   6  11
ATOM     11  O   UNL     1      13.376  11.591  44.851  0.00  0.00    +0.000 OA
ATOM     12  H   UNL     1      14.043  10.955  44.518  0.00  0.00    +0.000 HD
ENDBRANCH   6  11
TORSDOF 3
ENDMDL
MODEL 14
REMARK VINA RESULT:    -3.729      1.619      4.876
REMARK INTER + INTRA:          -4.334
REMARK INTER:                  -4.261
REMARK INTRA:                  -0.072
REMARK UNBOUND:                -0.060
REMARK  Name = opt34.pdb
REMARK  4 active torsions:
REMARK  status: ('A' for Active; 'I' for Inactive)
REMARK    1  A    between atoms: C_2  and  C_3
REMARK    2  A    between atoms: C_6  and  O_8
REMARK    3  A    between atoms: O_8  and  C_10
REMARK    4  A    between atoms: C_9  and  O_11
REMARK                            x       y       z     vdW  Elec       q    Type
REMARK                         _______ _______ _______ _____ _____    ______ ____
ROOT
ATOM      1  C   UNL     1      13.780  13.355  44.518  0.00  0.00    +0.000 A 
ATOM      2  C   UNL     1      14.838  14.268  44.522  0.00  0.00    +0.000 A 
ATOM      3  C   UNL     1      12.466  13.814  44.623  0.00  0.00    +0.000 A 
ATOM      4  C   UNL     1      14.582  15.639  44.628  0.00  0.00    +0.000 A 
ATOM      5  C   UNL     1      12.208  15.177  44.731  0.00  0.00    +0.000 A 
ATOM      6  C   UNL     1      13.264  16.084  44.733  0.00  0.00    +0.000 A 
ENDROOT
BRANCH   1   8
ATOM      7  O   UNL     1      13.172  11.038  44.386  0.00  0.00    +0.000 OA
ATOM      8  C   UNL     1      14.038  11.890  44.404  0.00  0.00    +0.000 C 
ENDBRANCH   1   8
BRANCH   4   9
ATOM      9  O   UNL     1      15.587  16.596  44.631  0.00  0.00    +0.000 OA
ATOM     10  C   UNL     1      16.730  16.540  45.515  0.00  0.00    +0.000 C 
ENDBRANCH   4   9
BRANCH   6  11
ATOM     11  O   UNL     1      13.030  17.419  44.838  0.00  0.00    +0.000 OA
ATOM     12  H   UNL     1      13.682  17.852  44.248  0.00  0.00    +0.000 HD
ENDBRANCH   6  11
TORSDOF 3
ENDMDL
MODEL 15
REMARK VINA RESULT:    -3.724      3.167      4.390
REMARK INTER + INTRA:          -4.329
REMARK INTER:                  -4.254
REMARK INTRA:                  -0.075
REMARK UNBOUND:                -0.060
REMARK  Name = opt34.pdb
REMARK  4 active torsions:
REMARK  status: ('A' for Active; 'I' for Inactive)
REMARK    1  A    between atoms: C_2  and  C_3
REMARK    2  A    between atoms: C_6  and  O_8
REMARK    3  A    between atoms: O_8  and  C_10
REMARK    4  A    between atoms: C_9  and  O_11
REMARK                            x       y       z     vdW  Elec       q    Type
REMARK                         _______ _______ _______ _____ _____    ______ ____
ROOT
ATOM      1  C   UNL     1      14.818  13.206  44.159  0.00  0.00    +0.000 A 
ATOM      2  C   UNL     1      15.269  13.698  42.931  0.00  0.00    +0.000 A 
ATOM      3  C   UNL     1      15.572  13.423  45.314  0.00  0.00    +0.000 A 
ATOM      4  C   UNL     1      16.471  14.408  42.858  0.00  0.00    +0.000 A 
ATOM      5  C   UNL     1      16.771  14.128  45.244  0.00  0.00    +0.000 A 
ATOM      6  C   UNL     1      17.216  14.618  44.019  0.00  0.00    +0.000 A 
ENDROOT
BRANCH   1   8
ATOM      7  O   UNL     1      13.453  11.269  44.533  0.00  0.00    +0.000 OA
ATOM      8  C   UNL     1      13.537  12.448  44.253  0.00  0.00    +0.000 C 
ENDBRANCH   1   8
BRANCH   4   9
ATOM      9  O   UNL     1      16.970  14.928  41.672  0.00  0.00    +0.000 OA
ATOM     10  C   UNL     1      17.584  14.112  40.647  0.00  0.00    +0.000 C 
ENDBRANCH   4   9
BRANCH   6  11
ATOM     11  O   UNL     1      18.385  15.307  43.933  0.00  0.00    +0.000 OA
ATOM     12  H   UNL     1      18.224  16.025  43.285  0.00  0.00    +0.000 HD
ENDBRANCH   6  11
TORSDOF 3
ENDMDL
MODEL 16
REMARK VINA RESULT:    -3.708      1.810      3.374
REMARK INTER + INTRA:          -4.310
REMARK INTER:                  -4.236
REMARK INTRA:                  -0.074
REMARK UNBOUND:                -0.060
REMARK  Name = opt34.pdb
REMARK  4 active torsions:
REMARK  status: ('A' for Active; 'I' for Inactive)
REMARK    1  A    between atoms: C_2  and  C_3
REMARK    2  A    between atoms: C_6  and  O_8
REMARK    3  A    between atoms: O_8  and  C_10
REMARK    4  A    between atoms: C_9  and  O_11
REMARK                            x       y       z     vdW  Elec       q    Type
REMARK                         _______ _______ _______ _____ _____    ______ ____
ROOT
ATOM      1  C   UNL     1      15.443  14.684  44.681  0.00  0.00    +0.000 A 
ATOM      2  C   UNL     1      14.607  13.568  44.587  0.00  0.00    +0.000 A 
ATOM      3  C   UNL     1      14.891  15.966  44.691  0.00  0.00    +0.000 A 
ATOM      4  C   UNL     1      13.221  13.734  44.506  0.00  0.00    +0.000 A 
ATOM      5  C   UNL     1      13.512  16.135  44.607  0.00  0.00    +0.000 A 
ATOM      6  C   UNL     1      12.682  15.020  44.515  0.00  0.00    +0.000 A 
ENDROOT
BRANCH   1   8
ATOM      7  O   UNL     1      17.504  14.005  45.703  0.00  0.00    +0.000 OA
ATOM      8  C   UNL     1      16.923  14.522  44.770  0.00  0.00    +0.000 C 
ENDBRANCH   1   8
BRANCH   4   9
ATOM      9  O   UNL     1      12.337  12.668  44.417  0.00  0.00    +0.000 OA
ATOM     10  C   UNL     1      12.151  11.891  43.211  0.00  0.00    +0.000 C 
ENDBRANCH   4   9
BRANCH   6  11
ATOM     11  O   UNL     1      11.333  15.167  44.433  0.00  0.00    +0.000 OA
ATOM     12  H   UNL     1      11.059  14.677  43.629  0.00  0.00    +0.000 HD
ENDBRANCH   6  11
TORSDOF 3
ENDMDL
MODEL 17
REMARK VINA RESULT:    -3.693      2.273      4.604
REMARK INTER + INTRA:          -4.293
REMARK INTER:                  -4.218
REMARK INTRA:                  -0.075
REMARK UNBOUND:                -0.060
REMARK  Name = opt34.pdb
REMARK  4 active torsions:
REMARK  status: ('A' for Active; 'I' for Inactive)
REMARK    1  A    between atoms: C_2  and  C_3
REMARK    2  A    between atoms: C_6  and  O_8
REMARK    3  A    between atoms: O_8  and  C_10
REMARK    4  A    between atoms: C_9  and  O_11
REMARK                            x       y       z     vdW  Elec       q    Type
REMARK                         _______ _______ _______ _____ _____    ______ ____
ROOT
ATOM      1  C   UNL     1      14.395  13.736  44.809  0.00  0.00    +0.000 A 
ATOM      2  C   UNL     1      14.170  15.105  44.638  0.00  0.00    +0.000 A 
ATOM      3  C   UNL     1      15.652  13.284  45.213  0.00  0.00    +0.000 A 
ATOM      4  C   UNL     1      15.202  16.020  44.871  0.00  0.00    +0.000 A 
ATOM      5  C   UNL     1      16.682  14.192  45.443  0.00  0.00    +0.000 A 
ATOM      6  C   UNL     1      16.454  15.555  45.272  0.00  0.00    +0.000 A 
ENDROOT
BRANCH   1   8
ATOM      7  O   UNL     1      13.468  11.547  44.490  0.00  0.00    +0.000 OA
ATOM      8  C   UNL     1      13.304  12.748  44.567  0.00  0.00    +0.000 C 
ENDBRANCH   1   8
BRANCH   4   9
ATOM      9  O   UNL     1      15.041  17.391  44.725  0.00  0.00    +0.000 OA
ATOM     10  C   UNL     1      14.049  18.153  45.449  0.00  0.00    +0.000 C 
ENDBRANCH   4   9
BRANCH   6  11
ATOM     11  O   UNL     1      17.449  16.456  45.492  0.00  0.00    +0.000 OA
ATOM     12  H   UNL     1      18.246  15.927  45.702  0.00  0.00    +0.000 HD
ENDBRANCH   6  11
TORSDOF 3
ENDMDL
MODEL 18
REMARK VINA RESULT:    -3.671      2.014      2.974
REMARK INTER + INTRA:          -4.267
REMARK INTER:                  -4.191
REMARK INTRA:                  -0.076
REMARK UNBOUND:                -0.060
REMARK  Name = opt34.pdb
REMARK  4 active torsions:
REMARK  status: ('A' for Active; 'I' for Inactive)
REMARK    1  A    between atoms: C_2  and  C_3
REMARK    2  A    between atoms: C_6  and  O_8
REMARK    3  A    between atoms: O_8  and  C_10
REMARK    4  A    between atoms: C_9  and  O_11
REMARK                            x       y       z     vdW  Elec       q    Type
REMARK                         _______ _______ _______ _____ _____    ______ ____
ROOT
ATOM      1  C   UNL     1      12.867  14.815  43.194  0.00  0.00    +0.000 A 
ATOM      2  C   UNL     1      14.099  14.565  42.586  0.00  0.00    +0.000 A 
ATOM      3  C   UNL     1      12.455  14.035  44.276  0.00  0.00    +0.000 A 
ATOM      4  C   UNL     1      14.921  13.537  43.060  0.00  0.00    +0.000 A 
ATOM      5  C   UNL     1      13.269  13.009  44.749  0.00  0.00    +0.000 A 
ATOM      6  C   UNL     1      14.497  12.763  44.141  0.00  0.00    +0.000 A 
ENDROOT
BRANCH   1   8
ATOM      7  O   UNL     1      11.083  16.412  43.347  0.00  0.00    +0.000 OA
ATOM      8  C   UNL     1      11.981  15.910  42.701  0.00  0.00    +0.000 C 
ENDBRANCH   1   8
BRANCH   4   9
ATOM      9  O   UNL     1      16.157  13.242  42.504  0.00  0.00    +0.000 OA
ATOM     10  C   UNL     1      17.267  14.171  42.504  0.00  0.00    +0.000 C 
ENDBRANCH   4   9
BRANCH   6  11
ATOM     11  O   UNL     1      15.304  11.766  44.590  0.00  0.00    +0.000 OA
ATOM     12  H   UNL     1      14.908  10.933  44.259  0.00  0.00    +0.000 HD
ENDBRANCH   6  11
TORSDOF 3
ENDMDL
MODEL 19
REMARK VINA RESULT:    -3.609      2.432      4.342
REMARK INTER + INTRA:          -4.197
REMARK INTER:                  -4.123
REMARK INTRA:                  -0.074
REMARK UNBOUND:                -0.060
REMARK  Name = opt34.pdb
REMARK  4 active torsions:
REMARK  status: ('A' for Active; 'I' for Inactive)
REMARK    1  A    between atoms: C_2  and  C_3
REMARK    2  A    between atoms: C_6  and  O_8
REMARK    3  A    between atoms: O_8  and  C_10
REMARK    4  A    between atoms: C_9  and  O_11
REMARK                            x       y       z     vdW  Elec       q    Type
REMARK                         _______ _______ _______ _____ _____    ______ ____
ROOT
ATOM      1  C   UNL     1      12.490  13.535  44.284  0.00  0.00    +0.000 A 
ATOM      2  C   UNL     1      11.244  13.153  43.780  0.00  0.00    +0.000 A 
ATOM      3  C   UNL     1      12.727  14.872  44.610  0.00  0.00    +0.000 A 
ATOM      4  C   UNL     1      10.236  14.107  43.604  0.00  0.00    +0.000 A 
ATOM      5  C   UNL     1      11.727  15.824  44.433  0.00  0.00    +0.000 A 
ATOM      6  C   UNL     1      10.486  15.439  43.931  0.00  0.00    +0.000 A 
ENDROOT
BRANCH   1   8
ATOM      7  O   UNL     1      13.409  11.327  44.457  0.00  0.00    +0.000 OA
ATOM      8  C   UNL     1      13.574  12.530  44.480  0.00  0.00    +0.000 C 
ENDBRANCH   1   8
BRANCH   4   9
ATOM      9  O   UNL     1       8.976  13.791  43.114  0.00  0.00    +0.000 OA
ATOM     10  C   UNL     1       8.052  12.921  43.808  0.00  0.00    +0.000 C 
ENDBRANCH   4   9
BRANCH   6  11
ATOM     11  O   UNL     1       9.498  16.356  43.752  0.00  0.00    +0.000 OA
ATOM     12  H   UNL     1       9.114  16.511  44.640  0.00  0.00    +0.000 HD
ENDBRANCH   6  11
TORSDOF 3
ENDMDL
MODEL 20
REMARK VINA RESULT:    -3.529      1.397      4.132
REMARK INTER + INTRA:          -4.105
REMARK INTER:                  -4.034
REMARK INTRA:                  -0.071
REMARK UNBOUND:                -0.060
REMARK  Name = opt34.pdb
REMARK  4 active torsions:
REMARK  status: ('A' for Active; 'I' for Inactive)
REMARK    1  A    between atoms: C_2  and  C_3
REMARK    2  A    between atoms: C_6  and  O_8
REMARK    3  A    between atoms: O_8  and  C_10
REMARK    4  A    between atoms: C_9  and  O_11
REMARK                            x       y       z     vdW  Elec       q    Type
REMARK                         _______ _______ _______ _____ _____    ______ ____
ROOT
ATOM      1  C   UNL     1      14.101  13.542  44.548  0.00  0.00    +0.000 A 
ATOM      2  C   UNL     1      12.885  14.231  44.547  0.00  0.00    +0.000 A 
ATOM      3  C   UNL     1      15.300  14.251  44.635  0.00  0.00    +0.000 A 
ATOM      4  C   UNL     1      12.869  15.626  44.635  0.00  0.00    +0.000 A 
ATOM      5  C   UNL     1      15.288  15.640  44.721  0.00  0.00    +0.000 A 
ATOM      6  C   UNL     1      14.074  16.323  44.721  0.00  0.00    +0.000 A 
ENDROOT
BRANCH   1   8
ATOM      7  O   UNL     1      13.149  11.345  44.396  0.00  0.00    +0.000 OA
ATOM      8  C   UNL     1      14.134  12.053  44.456  0.00  0.00    +0.000 C 
ENDBRANCH   1   8
BRANCH   4   9
ATOM      9  O   UNL     1      11.696  16.368  44.645  0.00  0.00    +0.000 OA
ATOM     10  C   UNL     1      10.703  16.293  43.596  0.00  0.00    +0.000 C 
ENDBRANCH   4   9
BRANCH   6  11
ATOM     11  O   UNL     1      14.044  17.679  44.803  0.00  0.00    +0.000 OA
ATOM     12  H   UNL     1      13.164  17.905  45.172  0.00  0.00    +0.000 HD
ENDBRANCH   6  11
TORSDOF 3
ENDMDL
