MODEL 1
REMARK VINA RESULT:    -5.183      0.000      0.000
REMARK INTER + INTRA:          -6.418
REMARK INTER:                  -6.243
REMARK INTRA:                  -0.175
REMARK UNBOUND:                -0.175
REMARK  Name = opt11.pdb
REMARK  5 active torsions:
REMARK  status: ('A' for Active; 'I' for Inactive)
REMARK    1  A    between atoms: C_2  and  C_4
REMARK    2  A    between atoms: C_5  and  C_6
REMARK    3  A    between atoms: C_9  and  O_11
REMARK    4  A    between atoms: O_11  and  C_13
REMARK    5  A    between atoms: C_12  and  O_14
REMARK                            x       y       z     vdW  Elec       q    Type
REMARK                         _______ _______ _______ _____ _____    ______ ____
ROOT
ATOM      1  C   UNL     1      13.950  14.539  44.269  0.00  0.00    +0.000 A 
ATOM      2  C   UNL     1      12.973  13.585  43.983  0.00  0.00    +0.000 A 
ATOM      3  C   UNL     1      15.242  14.130  44.602  0.00  0.00    +0.000 A 
ATOM      4  C   UNL     1      13.280  12.221  44.040  0.00  0.00    +0.000 A 
ATOM      5  C   UNL     1      15.556  12.773  44.651  0.00  0.00    +0.000 A 
ATOM      6  C   UNL     1      14.575  11.824  44.372  0.00  0.00    +0.000 A 
ENDROOT
BRANCH   1   8
ATOM      7  C   UNL     1      12.611  16.613  44.823  0.00  0.00    +0.000 C 
ATOM      8  C   UNL     1      13.620  15.978  44.208  0.00  0.00    +0.000 C 
BRANCH   7  10
ATOM      9  O   UNL     1      11.451  18.373  43.911  0.00  0.00    +0.000 OA
ATOM     10  C   UNL     1      12.279  18.050  44.738  0.00  0.00    +0.000 C 
ATOM     11  O   UNL     1      12.854  18.816  45.484  0.00  0.00    +0.000 OA
ENDBRANCH   7  10
ENDBRANCH   1   8
BRANCH   4  12
ATOM     12  O   UNL     1      12.346  11.224  43.782  0.00  0.00    +0.000 OA
ATOM     13  C   UNL     1      11.346  11.350  42.743  0.00  0.00    +0.000 C 
ENDBRANCH   4  12
BRANCH   6  14
ATOM     14  O   UNL     1      14.857  10.494  44.418  0.00  0.00    +0.000 OA
ATOM     15  H   UNL     1      15.835  10.439  44.385  0.00  0.00    +0.000 HD
ENDBRANCH   6  14
TORSDOF 4
ENDMDL
MODEL 2
REMARK VINA RESULT:    -4.721      3.026      4.497
REMARK INTER + INTRA:          -5.862
REMARK INTER:                  -5.706
REMARK INTRA:                  -0.155
REMARK UNBOUND:                -0.175
REMARK  Name = opt11.pdb
REMARK  5 active torsions:
REMARK  status: ('A' for Active; 'I' for Inactive)
REMARK    1  A    between atoms: C_2  and  C_4
REMARK    2  A    between atoms: C_5  and  C_6
REMARK    3  A    between atoms: C_9  and  O_11
REMARK    4  A    between atoms: O_11  and  C_13
REMARK    5  A    between atoms: C_12  and  O_14
REMARK                            x       y       z     vdW  Elec       q    Type
REMARK                         _______ _______ _______ _____ _____    ______ ____
ROOT
ATOM      1  C   UNL     1      12.990  13.246  44.179  0.00  0.00    +0.000 A 
ATOM      2  C   UNL     1      11.777  13.907  44.381  0.00  0.00    +0.000 A 
ATOM      3  C   UNL     1      13.093  12.271  43.186  0.00  0.00    +0.000 A 
ATOM      4  C   UNL     1      10.661  13.586  43.599  0.00  0.00    +0.000 A 
ATOM      5  C   UNL     1      11.987  11.955  42.398  0.00  0.00    +0.000 A 
ATOM      6  C   UNL     1      10.776  12.612  42.608  0.00  0.00    +0.000 A 
ENDROOT
BRANCH   1   8
ATOM      7  C   UNL     1      15.429  13.776  44.599  0.00  0.00    +0.000 C 
ATOM      8  C   UNL     1      14.165  13.588  45.007  0.00  0.00    +0.000 C 
BRANCH   7  10
ATOM      9  O   UNL     1      16.571  13.705  46.590  0.00  0.00    +0.000 OA
ATOM     10  C   UNL     1      16.599  14.098  45.441  0.00  0.00    +0.000 C 
ATOM     11  O   UNL     1      17.505  14.736  44.945  0.00  0.00    +0.000 OA
ENDBRANCH   7  10
ENDBRANCH   1   8
BRANCH   4  12
ATOM     12  O   UNL     1       9.424  14.197  43.763  0.00  0.00    +0.000 OA
ATOM     13  C   UNL     1       8.437  13.709  44.703  0.00  0.00    +0.000 C 
ENDBRANCH   4  12
BRANCH   6  14
ATOM     14  O   UNL     1       9.683  12.317  41.854  0.00  0.00    +0.000 OA
ATOM     15  H   UNL     1       9.267  11.548  42.297  0.00  0.00    +0.000 HD
ENDBRANCH   6  14
TORSDOF 4
ENDMDL
MODEL 3
REMARK VINA RESULT:    -4.673      3.747      5.217
REMARK INTER + INTRA:          -5.804
REMARK INTER:                  -5.609
REMARK INTRA:                  -0.195
REMARK UNBOUND:                -0.175
REMARK  Name = opt11.pdb
REMARK  5 active torsions:
REMARK  status: ('A' for Active; 'I' for Inactive)
REMARK    1  A    between atoms: C_2  and  C_4
REMARK    2  A    between atoms: C_5  and  C_6
REMARK    3  A    between atoms: C_9  and  O_11
REMARK    4  A    between atoms: O_11  and  C_13
REMARK    5  A    between atoms: C_12  and  O_14
REMARK                            x       y       z     vdW  Elec       q    Type
REMARK                         _______ _______ _______ _____ _____    ______ ____
ROOT
ATOM      1  C   UNL     1      14.551  13.033  43.080  0.00  0.00    +0.000 A 
ATOM      2  C   UNL     1      15.560  13.797  42.492  0.00  0.00    +0.000 A 
ATOM      3  C   UNL     1      14.583  12.779  44.452  0.00  0.00    +0.000 A 
ATOM      4  C   UNL     1      16.609  14.299  43.271  0.00  0.00    +0.000 A 
ATOM      5  C   UNL     1      15.620  13.285  45.233  0.00  0.00    +0.000 A 
ATOM      6  C   UNL     1      16.629  14.041  44.642  0.00  0.00    +0.000 A 
ENDROOT
BRANCH   1   8
ATOM      7  C   UNL     1      12.129  12.615  42.479  0.00  0.00    +0.000 C 
ATOM      8  C   UNL     1      13.447  12.504  42.253  0.00  0.00    +0.000 C 
BRANCH   7  10
ATOM      9  O   UNL     1       9.907  12.182  42.089  0.00  0.00    +0.000 OA
ATOM     10  C   UNL     1      11.035  12.064  41.653  0.00  0.00    +0.000 C 
ATOM     11  O   UNL     1      11.323  11.524  40.605  0.00  0.00    +0.000 OA
ENDBRANCH   7  10
ENDBRANCH   1   8
BRANCH   4  12
ATOM     12  O   UNL     1      17.650  15.052  42.741  0.00  0.00    +0.000 OA
ATOM     13  C   UNL     1      18.545  14.533  41.729  0.00  0.00    +0.000 C 
ENDBRANCH   4  12
BRANCH   6  14
ATOM     14  O   UNL     1      17.653  14.542  45.384  0.00  0.00    +0.000 OA
ATOM     15  H   UNL     1      18.462  14.132  45.012  0.00  0.00    +0.000 HD
ENDBRANCH   6  14
TORSDOF 4
ENDMDL
MODEL 4
REMARK VINA RESULT:    -4.622      2.827      4.975
REMARK INTER + INTRA:          -5.743
REMARK INTER:                  -5.567
REMARK INTRA:                  -0.176
REMARK UNBOUND:                -0.175
REMARK  Name = opt11.pdb
REMARK  5 active torsions:
REMARK  status: ('A' for Active; 'I' for Inactive)
REMARK    1  A    between atoms: C_2  and  C_4
REMARK    2  A    between atoms: C_5  and  C_6
REMARK    3  A    between atoms: C_9  and  O_11
REMARK    4  A    between atoms: O_11  and  C_13
REMARK    5  A    between atoms: C_12  and  O_14
REMARK                            x       y       z     vdW  Elec       q    Type
REMARK                         _______ _______ _______ _____ _____    ______ ____
ROOT
ATOM      1  C   UNL     1      11.197  14.338  44.487  0.00  0.00    +0.000 A 
ATOM      2  C   UNL     1      12.293  13.475  44.449  0.00  0.00    +0.000 A 
ATOM      3  C   UNL     1      11.400  15.715  44.572  0.00  0.00    +0.000 A 
ATOM      4  C   UNL     1      13.595  13.986  44.507  0.00  0.00    +0.000 A 
ATOM      5  C   UNL     1      12.694  16.230  44.621  0.00  0.00    +0.000 A 
ATOM      6  C   UNL     1      13.786  15.366  44.590  0.00  0.00    +0.000 A 
ENDROOT
BRANCH   1   8
ATOM      7  C   UNL     1       9.356  12.845  43.600  0.00  0.00    +0.000 C 
ATOM      8  C   UNL     1       9.825  13.792  44.426  0.00  0.00    +0.000 C 
BRANCH   7  10
ATOM      9  O   UNL     1       7.798  11.322  42.871  0.00  0.00    +0.000 OA
ATOM     10  C   UNL     1       7.975  12.322  43.536  0.00  0.00    +0.000 C 
ATOM     11  O   UNL     1       7.107  12.921  44.138  0.00  0.00    +0.000 OA
ENDBRANCH   7  10
ENDBRANCH   1   8
BRANCH   4  12
ATOM     12  O   UNL     1      14.725  13.178  44.489  0.00  0.00    +0.000 OA
ATOM     13  C   UNL     1      14.658  11.757  44.223  0.00  0.00    +0.000 C 
ENDBRANCH   4  12
BRANCH   6  14
ATOM     14  O   UNL     1      15.058  15.845  44.640  0.00  0.00    +0.000 OA
ATOM     15  H   UNL     1      15.350  15.892  43.707  0.00  0.00    +0.000 HD
ENDBRANCH   6  14
TORSDOF 4
ENDMDL
MODEL 5
REMARK VINA RESULT:    -4.517      2.085      5.161
REMARK INTER + INTRA:          -5.616
REMARK INTER:                  -5.438
REMARK INTRA:                  -0.177
REMARK UNBOUND:                -0.175
REMARK  Name = opt11.pdb
REMARK  5 active torsions:
REMARK  status: ('A' for Active; 'I' for Inactive)
REMARK    1  A    between atoms: C_2  and  C_4
REMARK    2  A    between atoms: C_5  and  C_6
REMARK    3  A    between atoms: C_9  and  O_11
REMARK    4  A    between atoms: O_11  and  C_13
REMARK    5  A    between atoms: C_12  and  O_14
REMARK                            x       y       z     vdW  Elec       q    Type
REMARK                         _______ _______ _______ _____ _____    ______ ____
ROOT
ATOM      1  C   UNL     1      13.868  13.473  44.196  0.00  0.00    +0.000 A 
ATOM      2  C   UNL     1      13.731  14.857  44.313  0.00  0.00    +0.000 A 
ATOM      3  C   UNL     1      15.052  12.856  44.603  0.00  0.00    +0.000 A 
ATOM      4  C   UNL     1      14.780  15.629  44.825  0.00  0.00    +0.000 A 
ATOM      5  C   UNL     1      16.096  13.619  45.123  0.00  0.00    +0.000 A 
ATOM      6  C   UNL     1      15.958  15.001  45.231  0.00  0.00    +0.000 A 
ENDROOT
BRANCH   1   8
ATOM      7  C   UNL     1      12.446  12.461  42.364  0.00  0.00    +0.000 C 
ATOM      8  C   UNL     1      12.758  12.663  43.654  0.00  0.00    +0.000 C 
BRANCH   7  10
ATOM      9  O   UNL     1      11.265  11.526  40.630  0.00  0.00    +0.000 OA
ATOM     10  C   UNL     1      11.320  11.664  41.835  0.00  0.00    +0.000 C 
ATOM     11  O   UNL     1      10.519  11.206  42.625  0.00  0.00    +0.000 OA
ENDBRANCH   7  10
ENDBRANCH   1   8
BRANCH   4  12
ATOM     12  O   UNL     1      14.710  17.011  44.950  0.00  0.00    +0.000 OA
ATOM     13  C   UNL     1      13.450  17.717  45.045  0.00  0.00    +0.000 C 
ENDBRANCH   4  12
BRANCH   6  14
ATOM     14  O   UNL     1      16.965  15.766  45.731  0.00  0.00    +0.000 OA
ATOM     15  H   UNL     1      16.585  16.204  46.521  0.00  0.00    +0.000 HD
ENDBRANCH   6  14
TORSDOF 4
ENDMDL
MODEL 6
REMARK VINA RESULT:    -4.488      2.766      4.508
REMARK INTER + INTRA:          -5.581
REMARK INTER:                  -5.412
REMARK INTRA:                  -0.169
REMARK UNBOUND:                -0.175
REMARK  Name = opt11.pdb
REMARK  5 active torsions:
REMARK  status: ('A' for Active; 'I' for Inactive)
REMARK    1  A    between atoms: C_2  and  C_4
REMARK    2  A    between atoms: C_5  and  C_6
REMARK    3  A    between atoms: C_9  and  O_11
REMARK    4  A    between atoms: O_11  and  C_13
REMARK    5  A    between atoms: C_12  and  O_14
REMARK                            x       y       z     vdW  Elec       q    Type
REMARK                         _______ _______ _______ _____ _____    ______ ____
ROOT
ATOM      1  C   UNL     1      14.827  13.939  43.911  0.00  0.00    +0.000 A 
ATOM      2  C   UNL     1      14.132  12.752  43.677  0.00  0.00    +0.000 A 
ATOM      3  C   UNL     1      14.164  15.034  44.467  0.00  0.00    +0.000 A 
ATOM      4  C   UNL     1      12.770  12.659  43.987  0.00  0.00    +0.000 A 
ATOM      5  C   UNL     1      12.810  14.944  44.786  0.00  0.00    +0.000 A 
ATOM      6  C   UNL     1      12.118  13.759  44.545  0.00  0.00    +0.000 A 
ENDROOT
BRANCH   1   8
ATOM      7  C   UNL     1      17.276  14.340  44.406  0.00  0.00    +0.000 C 
ATOM      8  C   UNL     1      16.264  14.031  43.580  0.00  0.00    +0.000 C 
BRANCH   7  10
ATOM      9  O   UNL     1      18.973  14.724  42.905  0.00  0.00    +0.000 OA
ATOM     10  C   UNL     1      18.708  14.448  44.058  0.00  0.00    +0.000 C 
ATOM     11  O   UNL     1      19.528  14.248  44.932  0.00  0.00    +0.000 OA
ENDBRANCH   7  10
ENDBRANCH   1   8
BRANCH   4  12
ATOM     12  O   UNL     1      12.021  11.511  43.762  0.00  0.00    +0.000 OA
ATOM     13  C   UNL     1      11.434  11.207  42.475  0.00  0.00    +0.000 C 
ENDBRANCH   4  12
BRANCH   6  14
ATOM     14  O   UNL     1      10.796  13.650  44.844  0.00  0.00    +0.000 OA
ATOM     15  H   UNL     1      10.537  14.532  45.182  0.00  0.00    +0.000 HD
ENDBRANCH   6  14
TORSDOF 4
ENDMDL
MODEL 7
REMARK VINA RESULT:    -4.404      3.121      5.593
REMARK INTER + INTRA:          -5.480
REMARK INTER:                  -5.293
REMARK INTRA:                  -0.187
REMARK UNBOUND:                -0.175
REMARK  Name = opt11.pdb
REMARK  5 active torsions:
REMARK  status: ('A' for Active; 'I' for Inactive)
REMARK    1  A    between atoms: C_2  and  C_4
REMARK    2  A    between atoms: C_5  and  C_6
REMARK    3  A    between atoms: C_9  and  O_11
REMARK    4  A    between atoms: O_11  and  C_13
REMARK    5  A    between atoms: C_12  and  O_14
REMARK                            x       y       z     vdW  Elec       q    Type
REMARK                         _______ _______ _______ _____ _____    ______ ____
ROOT
ATOM      1  C   UNL     1      10.361  14.229  44.193  0.00  0.00    +0.000 A 
ATOM      2  C   UNL     1      11.490  13.540  44.635  0.00  0.00    +0.000 A 
ATOM      3  C   UNL     1      10.462  15.576  43.844  0.00  0.00    +0.000 A 
ATOM      4  C   UNL     1      12.721  14.197  44.741  0.00  0.00    +0.000 A 
ATOM      5  C   UNL     1      11.687  16.234  43.939  0.00  0.00    +0.000 A 
ATOM      6  C   UNL     1      12.811  15.544  44.387  0.00  0.00    +0.000 A 
ENDROOT
BRANCH   1   8
ATOM      7  C   UNL     1       8.774  12.451  43.340  0.00  0.00    +0.000 C 
ATOM      8  C   UNL     1       9.063  13.530  44.084  0.00  0.00    +0.000 C 
BRANCH   7  10
ATOM      9  O   UNL     1       7.470  10.561  43.293  0.00  0.00    +0.000 OA
ATOM     10  C   UNL     1       7.467  11.773  43.225  0.00  0.00    +0.000 C 
ATOM     11  O   UNL     1       6.478  12.458  43.062  0.00  0.00    +0.000 OA
ENDBRANCH   7  10
ENDBRANCH   1   8
BRANCH   4  12
ATOM     12  O   UNL     1      13.877  13.570  45.190  0.00  0.00    +0.000 OA
ATOM     13  C   UNL     1      14.612  12.625  44.376  0.00  0.00    +0.000 C 
ENDBRANCH   4  12
BRANCH   6  14
ATOM     14  O   UNL     1      14.016  16.165  44.492  0.00  0.00    +0.000 OA
ATOM     15  H   UNL     1      14.575  15.553  45.014  0.00  0.00    +0.000 HD
ENDBRANCH   6  14
TORSDOF 4
ENDMDL
MODEL 8
REMARK VINA RESULT:    -4.391      1.804      6.167
REMARK INTER + INTRA:          -5.465
REMARK INTER:                  -5.288
REMARK INTRA:                  -0.176
REMARK UNBOUND:                -0.175
REMARK  Name = opt11.pdb
REMARK  5 active torsions:
REMARK  status: ('A' for Active; 'I' for Inactive)
REMARK    1  A    between atoms: C_2  and  C_4
REMARK    2  A    between atoms: C_5  and  C_6
REMARK    3  A    between atoms: C_9  and  O_11
REMARK    4  A    between atoms: O_11  and  C_13
REMARK    5  A    between atoms: C_12  and  O_14
REMARK                            x       y       z     vdW  Elec       q    Type
REMARK                         _______ _______ _______ _____ _____    ______ ____
ROOT
ATOM      1  C   UNL     1      13.601  15.496  44.495  0.00  0.00    +0.000 A 
ATOM      2  C   UNL     1      14.886  16.031  44.392  0.00  0.00    +0.000 A 
ATOM      3  C   UNL     1      12.531  16.322  44.842  0.00  0.00    +0.000 A 
ATOM      4  C   UNL     1      15.107  17.390  44.646  0.00  0.00    +0.000 A 
ATOM      5  C   UNL     1      12.744  17.678  45.087  0.00  0.00    +0.000 A 
ATOM      6  C   UNL     1      14.029  18.206  44.989  0.00  0.00    +0.000 A 
ENDROOT
BRANCH   1   8
ATOM      7  C   UNL     1      14.164  13.030  44.565  0.00  0.00    +0.000 C 
ATOM      8  C   UNL     1      13.374  14.061  44.227  0.00  0.00    +0.000 C 
BRANCH   7  10
ATOM      9  O   UNL     1      12.779  11.234  44.199  0.00  0.00    +0.000 OA
ATOM     10  C   UNL     1      13.935  11.600  44.273  0.00  0.00    +0.000 C 
ATOM     11  O   UNL     1      14.903  10.880  44.136  0.00  0.00    +0.000 OA
ENDBRANCH   7  10
ENDBRANCH   1   8
BRANCH   4  12
ATOM     12  O   UNL     1      16.364  17.977  44.575  0.00  0.00    +0.000 OA
ATOM     13  C   UNL     1      17.470  17.360  43.874  0.00  0.00    +0.000 C 
ENDBRANCH   4  12
BRANCH   6  14
ATOM     14  O   UNL     1      14.261  19.525  45.227  0.00  0.00    +0.000 OA
ATOM     15  H   UNL     1      15.222  19.647  45.078  0.00  0.00    +0.000 HD
ENDBRANCH   6  14
TORSDOF 4
ENDMDL
MODEL 9
REMARK VINA RESULT:    -4.389      1.930      3.123
REMARK INTER + INTRA:          -5.462
REMARK INTER:                  -5.268
REMARK INTRA:                  -0.193
REMARK UNBOUND:                -0.175
REMARK  Name = opt11.pdb
REMARK  5 active torsions:
REMARK  status: ('A' for Active; 'I' for Inactive)
REMARK    1  A    between atoms: C_2  and  C_4
REMARK    2  A    between atoms: C_5  and  C_6
REMARK    3  A    between atoms: C_9  and  O_11
REMARK    4  A    between atoms: O_11  and  C_13
REMARK    5  A    between atoms: C_12  and  O_14
REMARK                            x       y       z     vdW  Elec       q    Type
REMARK                         _______ _______ _______ _____ _____    ______ ____
ROOT
ATOM      1  C   UNL     1      12.549  14.192  43.759  0.00  0.00    +0.000 A 
ATOM      2  C   UNL     1      13.767  14.263  44.438  0.00  0.00    +0.000 A 
ATOM      3  C   UNL     1      12.065  12.956  43.329  0.00  0.00    +0.000 A 
ATOM      4  C   UNL     1      14.509  13.101  44.677  0.00  0.00    +0.000 A 
ATOM      5  C   UNL     1      12.796  11.795  43.574  0.00  0.00    +0.000 A 
ATOM      6  C   UNL     1      14.014  11.871  44.245  0.00  0.00    +0.000 A 
ENDROOT
BRANCH   1   8
ATOM      7  C   UNL     1      10.436  15.566  43.531  0.00  0.00    +0.000 C 
ATOM      8  C   UNL     1      11.770  15.422  43.508  0.00  0.00    +0.000 C 
BRANCH   7  10
ATOM      9  O   UNL     1       8.466  16.679  43.135  0.00  0.00    +0.000 OA
ATOM     10  C   UNL     1       9.668  16.798  43.258  0.00  0.00    +0.000 C 
ATOM     11  O   UNL     1      10.277  17.845  43.165  0.00  0.00    +0.000 OA
ENDBRANCH   7  10
ENDBRANCH   1   8
BRANCH   4  12
ATOM     12  O   UNL     1      15.735  13.110  45.332  0.00  0.00    +0.000 OA
ATOM     13  C   UNL     1      16.795  14.030  44.981  0.00  0.00    +0.000 C 
ENDBRANCH   4  12
BRANCH   6  14
ATOM     14  O   UNL     1      14.747  10.752  44.491  0.00  0.00    +0.000 OA
ATOM     15  H   UNL     1      15.544  10.840  43.929  0.00  0.00    +0.000 HD
ENDBRANCH   6  14
TORSDOF 4
ENDMDL
MODEL 10
REMARK VINA RESULT:    -4.385      3.099      5.434
REMARK INTER + INTRA:          -5.457
REMARK INTER:                  -5.264
REMARK INTRA:                  -0.193
REMARK UNBOUND:                -0.175
REMARK  Name = opt11.pdb
REMARK  5 active torsions:
REMARK  status: ('A' for Active; 'I' for Inactive)
REMARK    1  A    between atoms: C_2  and  C_4
REMARK    2  A    between atoms: C_5  and  C_6
REMARK    3  A    between atoms: C_9  and  O_11
REMARK    4  A    between atoms: O_11  and  C_13
REMARK    5  A    between atoms: C_12  and  O_14
REMARK                            x       y       z     vdW  Elec       q    Type
REMARK                         _______ _______ _______ _____ _____    ______ ____
ROOT
ATOM      1  C   UNL     1      11.360  14.412  44.467  0.00  0.00    +0.000 A 
ATOM      2  C   UNL     1      10.134  13.747  44.515  0.00  0.00    +0.000 A 
ATOM      3  C   UNL     1      11.412  15.744  44.055  0.00  0.00    +0.000 A 
ATOM      4  C   UNL     1       8.959  14.409  44.141  0.00  0.00    +0.000 A 
ATOM      5  C   UNL     1      10.243  16.410  43.692  0.00  0.00    +0.000 A 
ATOM      6  C   UNL     1       9.022  15.741  43.735  0.00  0.00    +0.000 A 
ENDROOT
BRANCH   1   8
ATOM      7  C   UNL     1      13.861  14.034  44.546  0.00  0.00    +0.000 C 
ATOM      8  C   UNL     1      12.599  13.708  44.861  0.00  0.00    +0.000 C 
BRANCH   7  10
ATOM      9  O   UNL     1      15.755  13.794  45.825  0.00  0.00    +0.000 OA
ATOM     10  C   UNL     1      15.091  13.310  44.931  0.00  0.00    +0.000 C 
ATOM     11  O   UNL     1      15.367  12.290  44.332  0.00  0.00    +0.000 OA
ENDBRANCH   7  10
ENDBRANCH   1   8
BRANCH   4  12
ATOM     12  O   UNL     1       7.711  13.797  44.153  0.00  0.00    +0.000 OA
ATOM     13  C   UNL     1       7.489  12.479  43.598  0.00  0.00    +0.000 C 
ENDBRANCH   4  12
BRANCH   6  14
ATOM     14  O   UNL     1       7.869  16.370  43.380  0.00  0.00    +0.000 OA
ATOM     15  H   UNL     1       8.154  17.170  42.892  0.00  0.00    +0.000 HD
ENDBRANCH   6  14
TORSDOF 4
ENDMDL
MODEL 11
REMARK VINA RESULT:    -4.384      3.319      4.428
REMARK INTER + INTRA:          -5.456
REMARK INTER:                  -5.258
REMARK INTRA:                  -0.198
REMARK UNBOUND:                -0.175
REMARK  Name = opt11.pdb
REMARK  5 active torsions:
REMARK  status: ('A' for Active; 'I' for Inactive)
REMARK    1  A    between atoms: C_2  and  C_4
REMARK    2  A    between atoms: C_5  and  C_6
REMARK    3  A    between atoms: C_9  and  O_11
REMARK    4  A    between atoms: O_11  and  C_13
REMARK    5  A    between atoms: C_12  and  O_14
REMARK                            x       y       z     vdW  Elec       q    Type
REMARK                         _______ _______ _______ _____ _____    ______ ____
ROOT
ATOM      1  C   UNL     1      12.828  13.325  43.283  0.00  0.00    +0.000 A 
ATOM      2  C   UNL     1      14.084  13.306  42.676  0.00  0.00    +0.000 A 
ATOM      3  C   UNL     1      12.730  13.366  44.674  0.00  0.00    +0.000 A 
ATOM      4  C   UNL     1      15.245  13.316  43.457  0.00  0.00    +0.000 A 
ATOM      5  C   UNL     1      13.883  13.386  45.457  0.00  0.00    +0.000 A 
ATOM      6  C   UNL     1      15.135  13.360  44.847  0.00  0.00    +0.000 A 
ENDROOT
BRANCH   1   8
ATOM      7  C   UNL     1      10.337  13.474  42.861  0.00  0.00    +0.000 C 
ATOM      8  C   UNL     1      11.605  13.312  42.453  0.00  0.00    +0.000 C 
BRANCH   7  10
ATOM      9  O   UNL     1       8.440  14.445  42.004  0.00  0.00    +0.000 OA
ATOM     10  C   UNL     1       9.121  13.440  42.023  0.00  0.00    +0.000 C 
ATOM     11  O   UNL     1       8.871  12.418  41.416  0.00  0.00    +0.000 OA
ENDBRANCH   7  10
ENDBRANCH   1   8
BRANCH   4  12
ATOM     12  O   UNL     1      16.523  13.282  42.912  0.00  0.00    +0.000 OA
ATOM     13  C   UNL     1      17.014  14.313  42.024  0.00  0.00    +0.000 C 
ENDBRANCH   4  12
BRANCH   6  14
ATOM     14  O   UNL     1      16.274  13.374  45.591  0.00  0.00    +0.000 OA
ATOM     15  H   UNL     1      16.738  12.542  45.363  0.00  0.00    +0.000 HD
ENDBRANCH   6  14
TORSDOF 4
ENDMDL
MODEL 12
REMARK VINA RESULT:    -4.375      3.052      5.157
REMARK INTER + INTRA:          -5.445
REMARK INTER:                  -5.266
REMARK INTRA:                  -0.179
REMARK UNBOUND:                -0.175
REMARK  Name = opt11.pdb
REMARK  5 active torsions:
REMARK  status: ('A' for Active; 'I' for Inactive)
REMARK    1  A    between atoms: C_2  and  C_4
REMARK    2  A    between atoms: C_5  and  C_6
REMARK    3  A    between atoms: C_9  and  O_11
REMARK    4  A    between atoms: O_11  and  C_13
REMARK    5  A    between atoms: C_12  and  O_14
REMARK                            x       y       z     vdW  Elec       q    Type
REMARK                         _______ _______ _______ _____ _____    ______ ____
ROOT
ATOM      1  C   UNL     1      15.413  14.172  44.692  0.00  0.00    +0.000 A 
ATOM      2  C   UNL     1      14.499  15.222  44.588  0.00  0.00    +0.000 A 
ATOM      3  C   UNL     1      14.955  12.856  44.752  0.00  0.00    +0.000 A 
ATOM      4  C   UNL     1      13.125  14.959  44.556  0.00  0.00    +0.000 A 
ATOM      5  C   UNL     1      13.587  12.588  44.710  0.00  0.00    +0.000 A 
ATOM      6  C   UNL     1      12.678  13.639  44.614  0.00  0.00    +0.000 A 
ENDROOT
BRANCH   1   8
ATOM      7  C   UNL     1      17.739  14.369  43.715  0.00  0.00    +0.000 C 
ATOM      8  C   UNL     1      16.863  14.455  44.727  0.00  0.00    +0.000 C 
BRANCH   7  10
ATOM      9  O   UNL     1      19.730  14.521  44.850  0.00  0.00    +0.000 OA
ATOM     10  C   UNL     1      19.192  14.636  43.768  0.00  0.00    +0.000 C 
ATOM     11  O   UNL     1      19.753  14.959  42.741  0.00  0.00    +0.000 OA
ENDBRANCH   7  10
ENDBRANCH   1   8
BRANCH   4  12
ATOM     12  O   UNL     1      12.166  15.961  44.470  0.00  0.00    +0.000 OA
ATOM     13  C   UNL     1      12.516  17.359  44.330  0.00  0.00    +0.000 C 
ENDBRANCH   4  12
BRANCH   6  14
ATOM     14  O   UNL     1      11.339  13.402  44.576  0.00  0.00    +0.000 OA
ATOM     15  H   UNL     1      11.080  13.252  45.508  0.00  0.00    +0.000 HD
ENDBRANCH   6  14
TORSDOF 4
ENDMDL
MODEL 13
REMARK VINA RESULT:    -4.354      2.086      2.458
REMARK INTER + INTRA:          -5.420
REMARK INTER:                  -5.229
REMARK INTRA:                  -0.192
REMARK UNBOUND:                -0.175
REMARK  Name = opt11.pdb
REMARK  5 active torsions:
REMARK  status: ('A' for Active; 'I' for Inactive)
REMARK    1  A    between atoms: C_2  and  C_4
REMARK    2  A    between atoms: C_5  and  C_6
REMARK    3  A    between atoms: C_9  and  O_11
REMARK    4  A    between atoms: O_11  and  C_13
REMARK    5  A    between atoms: C_12  and  O_14
REMARK                            x       y       z     vdW  Elec       q    Type
REMARK                         _______ _______ _______ _____ _____    ______ ____
ROOT
ATOM      1  C   UNL     1      14.722  15.344  44.649  0.00  0.00    +0.000 A 
ATOM      2  C   UNL     1      13.398  14.909  44.578  0.00  0.00    +0.000 A 
ATOM      3  C   UNL     1      15.753  14.412  44.778  0.00  0.00    +0.000 A 
ATOM      4  C   UNL     1      13.100  13.543  44.648  0.00  0.00    +0.000 A 
ATOM      5  C   UNL     1      15.462  13.051  44.838  0.00  0.00    +0.000 A 
ATOM      6  C   UNL     1      14.139  12.621  44.774  0.00  0.00    +0.000 A 
ENDROOT
BRANCH   1   8
ATOM      7  C   UNL     1      15.547  17.564  45.541  0.00  0.00    +0.000 C 
ATOM      8  C   UNL     1      15.031  16.787  44.576  0.00  0.00    +0.000 C 
BRANCH   7  10
ATOM      9  O   UNL     1      16.727  19.433  46.166  0.00  0.00    +0.000 OA
ATOM     10  C   UNL     1      15.833  19.011  45.461  0.00  0.00    +0.000 C 
ATOM     11  O   UNL     1      15.160  19.689  44.711  0.00  0.00    +0.000 OA
ENDBRANCH   7  10
ENDBRANCH   1   8
BRANCH   4  12
ATOM     12  O   UNL     1      11.802  13.050  44.600  0.00  0.00    +0.000 OA
ATOM     13  C   UNL     1      11.008  13.074  43.390  0.00  0.00    +0.000 C 
ENDBRANCH   4  12
BRANCH   6  14
ATOM     14  O   UNL     1      13.831  11.298  44.836  0.00  0.00    +0.000 OA
ATOM     15  H   UNL     1      12.923  11.230  44.473  0.00  0.00    +0.000 HD
ENDBRANCH   6  14
TORSDOF 4
ENDMDL
MODEL 14
REMARK VINA RESULT:    -4.327      3.991      6.360
REMARK INTER + INTRA:          -5.388
REMARK INTER:                  -5.199
REMARK INTRA:                  -0.188
REMARK UNBOUND:                -0.175
REMARK  Name = opt11.pdb
REMARK  5 active torsions:
REMARK  status: ('A' for Active; 'I' for Inactive)
REMARK    1  A    between atoms: C_2  and  C_4
REMARK    2  A    between atoms: C_5  and  C_6
REMARK    3  A    between atoms: C_9  and  O_11
REMARK    4  A    between atoms: O_11  and  C_13
REMARK    5  A    between atoms: C_12  and  O_14
REMARK                            x       y       z     vdW  Elec       q    Type
REMARK                         _______ _______ _______ _____ _____    ______ ____
ROOT
ATOM      1  C   UNL     1       9.658  13.423  43.618  0.00  0.00    +0.000 A 
ATOM      2  C   UNL     1       8.942  12.305  43.188  0.00  0.00    +0.000 A 
ATOM      3  C   UNL     1       9.006  14.646  43.777  0.00  0.00    +0.000 A 
ATOM      4  C   UNL     1       7.576  12.408  42.904  0.00  0.00    +0.000 A 
ATOM      5  C   UNL     1       7.643  14.752  43.506  0.00  0.00    +0.000 A 
ATOM      6  C   UNL     1       6.933  13.635  43.070  0.00  0.00    +0.000 A 
ENDROOT
BRANCH   1   8
ATOM      7  C   UNL     1      11.923  12.294  43.601  0.00  0.00    +0.000 C 
ATOM      8  C   UNL     1      11.101  13.308  43.914  0.00  0.00    +0.000 C 
BRANCH   7  10
ATOM      9  O   UNL     1      13.721  11.167  44.480  0.00  0.00    +0.000 OA
ATOM     10  C   UNL     1      13.362  12.183  43.920  0.00  0.00    +0.000 C 
ATOM     11  O   UNL     1      14.090  13.106  43.617  0.00  0.00    +0.000 OA
ENDBRANCH   7  10
ENDBRANCH   1   8
BRANCH   4  12
ATOM     12  O   UNL     1       6.813  11.336  42.458  0.00  0.00    +0.000 OA
ATOM     13  C   UNL     1       6.368  10.280  43.342  0.00  0.00    +0.000 C 
ENDBRANCH   4  12
BRANCH   6  14
ATOM     14  O   UNL     1       5.604  13.717  42.795  0.00  0.00    +0.000 OA
ATOM     15  H   UNL     1       5.194  14.065  43.614  0.00  0.00    +0.000 HD
ENDBRANCH   6  14
TORSDOF 4
ENDMDL
MODEL 15
REMARK VINA RESULT:    -4.304      2.868      4.821
REMARK INTER + INTRA:          -5.360
REMARK INTER:                  -5.160
REMARK INTRA:                  -0.199
REMARK UNBOUND:                -0.175
REMARK  Name = opt11.pdb
REMARK  5 active torsions:
REMARK  status: ('A' for Active; 'I' for Inactive)
REMARK    1  A    between atoms: C_2  and  C_4
REMARK    2  A    between atoms: C_5  and  C_6
REMARK    3  A    between atoms: C_9  and  O_11
REMARK    4  A    between atoms: O_11  and  C_13
REMARK    5  A    between atoms: C_12  and  O_14
REMARK                            x       y       z     vdW  Elec       q    Type
REMARK                         _______ _______ _______ _____ _____    ______ ____
ROOT
ATOM      1  C   UNL     1      12.324  13.328  43.678  0.00  0.00    +0.000 A 
ATOM      2  C   UNL     1      13.093  14.202  44.447  0.00  0.00    +0.000 A 
ATOM      3  C   UNL     1      12.947  12.474  42.766  0.00  0.00    +0.000 A 
ATOM      4  C   UNL     1      14.485  14.233  44.300  0.00  0.00    +0.000 A 
ATOM      5  C   UNL     1      14.333  12.494  42.623  0.00  0.00    +0.000 A 
ATOM      6  C   UNL     1      15.096  13.373  43.388  0.00  0.00    +0.000 A 
ENDROOT
BRANCH   1   8
ATOM      7  C   UNL     1       9.979  12.496  43.214  0.00  0.00    +0.000 C 
ATOM      8  C   UNL     1      10.855  13.300  43.836  0.00  0.00    +0.000 C 
BRANCH   7  10
ATOM      9  O   UNL     1       8.055  13.111  44.308  0.00  0.00    +0.000 OA
ATOM     10  C   UNL     1       8.510  12.492  43.368  0.00  0.00    +0.000 C 
ATOM     11  O   UNL     1       7.851  11.868  42.560  0.00  0.00    +0.000 OA
ENDBRANCH   7  10
ENDBRANCH   1   8
BRANCH   4  12
ATOM     12  O   UNL     1      15.302  15.091  45.026  0.00  0.00    +0.000 OA
ATOM     13  C   UNL     1      15.328  16.519  44.791  0.00  0.00    +0.000 C 
ENDBRANCH   4  12
BRANCH   6  14
ATOM     14  O   UNL     1      16.450  13.413  43.262  0.00  0.00    +0.000 OA
ATOM     15  H   UNL     1      16.793  12.910  44.029  0.00  0.00    +0.000 HD
ENDBRANCH   6  14
TORSDOF 4
ENDMDL
MODEL 16
REMARK VINA RESULT:    -4.304      2.482      5.412
REMARK INTER + INTRA:          -5.360
REMARK INTER:                  -5.176
REMARK INTRA:                  -0.184
REMARK UNBOUND:                -0.175
REMARK  Name = opt11.pdb
REMARK  5 active torsions:
REMARK  status: ('A' for Active; 'I' for Inactive)
REMARK    1  A    between atoms: C_2  and  C_4
REMARK    2  A    between atoms: C_5  and  C_6
REMARK    3  A    between atoms: C_9  and  O_11
REMARK    4  A    between atoms: O_11  and  C_13
REMARK    5  A    between atoms: C_12  and  O_14
REMARK                            x       y       z     vdW  Elec       q    Type
REMARK                         _______ _______ _______ _____ _____    ______ ____
ROOT
ATOM      1  C   UNL     1      13.850  13.750  43.885  0.00  0.00    +0.000 A 
ATOM      2  C   UNL     1      15.186  13.514  44.211  0.00  0.00    +0.000 A 
ATOM      3  C   UNL     1      13.294  15.011  44.103  0.00  0.00    +0.000 A 
ATOM      4  C   UNL     1      15.967  14.534  44.767  0.00  0.00    +0.000 A 
ATOM      5  C   UNL     1      14.070  16.033  44.648  0.00  0.00    +0.000 A 
ATOM      6  C   UNL     1      15.401  15.791  44.979  0.00  0.00    +0.000 A 
ENDROOT
BRANCH   1   8
ATOM      7  C   UNL     1      12.166  12.759  42.276  0.00  0.00    +0.000 C 
ATOM      8  C   UNL     1      13.030  12.669  43.299  0.00  0.00    +0.000 C 
BRANCH   7  10
ATOM      9  O   UNL     1      11.300  11.585  40.502  0.00  0.00    +0.000 OA
ATOM     10  C   UNL     1      11.337  11.674  41.712  0.00  0.00    +0.000 C 
ATOM     11  O   UNL     1      10.741  10.949  42.482  0.00  0.00    +0.000 OA
ENDBRANCH   7  10
ENDBRANCH   1   8
BRANCH   4  12
ATOM     12  O   UNL     1      17.297  14.356  45.128  0.00  0.00    +0.000 OA
ATOM     13  C   UNL     1      18.375  14.411  44.164  0.00  0.00    +0.000 C 
ENDBRANCH   4  12
BRANCH   6  14
ATOM     14  O   UNL     1      16.176  16.772  45.516  0.00  0.00    +0.000 OA
ATOM     15  H   UNL     1      16.263  17.444  44.809  0.00  0.00    +0.000 HD
ENDBRANCH   6  14
TORSDOF 4
ENDMDL
MODEL 17
REMARK VINA RESULT:    -4.283      2.962      4.651
REMARK INTER + INTRA:          -5.334
REMARK INTER:                  -5.147
REMARK INTRA:                  -0.187
REMARK UNBOUND:                -0.175
REMARK  Name = opt11.pdb
REMARK  5 active torsions:
REMARK  status: ('A' for Active; 'I' for Inactive)
REMARK    1  A    between atoms: C_2  and  C_4
REMARK    2  A    between atoms: C_5  and  C_6
REMARK    3  A    between atoms: C_9  and  O_11
REMARK    4  A    between atoms: O_11  and  C_13
REMARK    5  A    between atoms: C_12  and  O_14
REMARK                            x       y       z     vdW  Elec       q    Type
REMARK                         _______ _______ _______ _____ _____    ______ ____
ROOT
ATOM      1  C   UNL     1      13.652  14.529  44.724  0.00  0.00    +0.000 A 
ATOM      2  C   UNL     1      14.415  15.639  44.360  0.00  0.00    +0.000 A 
ATOM      3  C   UNL     1      14.271  13.420  45.302  0.00  0.00    +0.000 A 
ATOM      4  C   UNL     1      15.800  15.639  44.561  0.00  0.00    +0.000 A 
ATOM      5  C   UNL     1      15.648  13.419  45.514  0.00  0.00    +0.000 A 
ATOM      6  C   UNL     1      16.408  14.526  45.143  0.00  0.00    +0.000 A 
ENDROOT
BRANCH   1   8
ATOM      7  C   UNL     1      11.397  13.483  44.249  0.00  0.00    +0.000 C 
ATOM      8  C   UNL     1      12.190  14.534  44.508  0.00  0.00    +0.000 C 
BRANCH   7  10
ATOM      9  O   UNL     1       9.567  13.417  42.862  0.00  0.00    +0.000 OA
ATOM     10  C   UNL     1       9.938  13.505  44.015  0.00  0.00    +0.000 C 
ATOM     11  O   UNL     1       9.204  13.617  44.976  0.00  0.00    +0.000 OA
ENDBRANCH   7  10
ENDBRANCH   1   8
BRANCH   4  12
ATOM     12  O   UNL     1      16.616  16.707  44.206  0.00  0.00    +0.000 OA
ATOM     13  C   UNL     1      16.722  17.903  45.013  0.00  0.00    +0.000 C 
ENDBRANCH   4  12
BRANCH   6  14
ATOM     14  O   UNL     1      17.754  14.545  45.336  0.00  0.00    +0.000 OA
ATOM     15  H   UNL     1      18.135  14.163  44.519  0.00  0.00    +0.000 HD
ENDBRANCH   6  14
TORSDOF 4
ENDMDL
MODEL 18
REMARK VINA RESULT:    -4.280      2.697      3.938
REMARK INTER + INTRA:          -5.331
REMARK INTER:                  -5.158
REMARK INTRA:                  -0.173
REMARK UNBOUND:                -0.175
REMARK  Name = opt11.pdb
REMARK  5 active torsions:
REMARK  status: ('A' for Active; 'I' for Inactive)
REMARK    1  A    between atoms: C_2  and  C_4
REMARK    2  A    between atoms: C_5  and  C_6
REMARK    3  A    between atoms: C_9  and  O_11
REMARK    4  A    between atoms: O_11  and  C_13
REMARK    5  A    between atoms: C_12  and  O_14
REMARK                            x       y       z     vdW  Elec       q    Type
REMARK                         _______ _______ _______ _____ _____    ______ ____
ROOT
ATOM      1  C   UNL     1      14.006  15.822  44.599  0.00  0.00    +0.000 A 
ATOM      2  C   UNL     1      14.083  14.430  44.542  0.00  0.00    +0.000 A 
ATOM      3  C   UNL     1      12.763  16.444  44.711  0.00  0.00    +0.000 A 
ATOM      4  C   UNL     1      12.917  13.657  44.584  0.00  0.00    +0.000 A 
ATOM      5  C   UNL     1      11.599  15.679  44.762  0.00  0.00    +0.000 A 
ATOM      6  C   UNL     1      11.679  14.290  44.698  0.00  0.00    +0.000 A 
ENDROOT
BRANCH   1   8
ATOM      7  C   UNL     1      16.315  16.535  45.351  0.00  0.00    +0.000 C 
ATOM      8  C   UNL     1      15.241  16.633  44.554  0.00  0.00    +0.000 C 
BRANCH   7  10
ATOM      9  O   UNL     1      17.386  18.566  45.418  0.00  0.00    +0.000 OA
ATOM     10  C   UNL     1      17.536  17.366  45.307  0.00  0.00    +0.000 C 
ATOM     11  O   UNL     1      18.604  16.808  45.155  0.00  0.00    +0.000 OA
ENDBRANCH   7  10
ENDBRANCH   1   8
BRANCH   4  12
ATOM     12  O   UNL     1      12.928  12.269  44.514  0.00  0.00    +0.000 OA
ATOM     13  C   UNL     1      14.144  11.512  44.309  0.00  0.00    +0.000 C 
ENDBRANCH   4  12
BRANCH   6  14
ATOM     14  O   UNL     1      10.557  13.523  44.742  0.00  0.00    +0.000 OA
ATOM     15  H   UNL     1      10.836  12.643  44.414  0.00  0.00    +0.000 HD
ENDBRANCH   6  14
TORSDOF 4
ENDMDL
MODEL 19
REMARK VINA RESULT:    -4.180      1.620      2.993
REMARK INTER + INTRA:          -5.211
REMARK INTER:                  -5.020
REMARK INTRA:                  -0.191
REMARK UNBOUND:                -0.175
REMARK  Name = opt11.pdb
REMARK  5 active torsions:
REMARK  status: ('A' for Active; 'I' for Inactive)
REMARK    1  A    between atoms: C_2  and  C_4
REMARK    2  A    between atoms: C_5  and  C_6
REMARK    3  A    between atoms: C_9  and  O_11
REMARK    4  A    between atoms: O_11  and  C_13
REMARK    5  A    between atoms: C_12  and  O_14
REMARK                            x       y       z     vdW  Elec       q    Type
REMARK                         _______ _______ _______ _____ _____    ______ ____
ROOT
ATOM      1  C   UNL     1      12.600  15.823  44.574  0.00  0.00    +0.000 A 
ATOM      2  C   UNL     1      13.925  15.393  44.657  0.00  0.00    +0.000 A 
ATOM      3  C   UNL     1      11.566  14.886  44.552  0.00  0.00    +0.000 A 
ATOM      4  C   UNL     1      14.221  14.025  44.707  0.00  0.00    +0.000 A 
ATOM      5  C   UNL     1      11.855  13.524  44.612  0.00  0.00    +0.000 A 
ATOM      6  C   UNL     1      13.179  13.098  44.688  0.00  0.00    +0.000 A 
ENDROOT
BRANCH   1   8
ATOM      7  C   UNL     1      13.161  18.284  44.390  0.00  0.00    +0.000 C 
ATOM      8  C   UNL     1      12.294  17.268  44.520  0.00  0.00    +0.000 C 
BRANCH   7  10
ATOM      9  O   UNL     1      11.671  20.032  44.447  0.00  0.00    +0.000 OA
ATOM     10  C   UNL     1      12.843  19.726  44.357  0.00  0.00    +0.000 C 
ATOM     11  O   UNL     1      13.760  20.513  44.233  0.00  0.00    +0.000 OA
ENDBRANCH   7  10
ENDBRANCH   1   8
BRANCH   4  12
ATOM     12  O   UNL     1      15.519  13.535  44.774  0.00  0.00    +0.000 OA
ATOM     13  C   UNL     1      16.448  13.940  45.808  0.00  0.00    +0.000 C 
ENDBRANCH   4  12
BRANCH   6  14
ATOM     14  O   UNL     1      13.484  11.774  44.742  0.00  0.00    +0.000 OA
ATOM     15  H   UNL     1      13.388  11.452  43.822  0.00  0.00    +0.000 HD
ENDBRANCH   6  14
TORSDOF 4
ENDMDL
