MODEL 1
REMARK VINA RESULT:    -4.899      0.000      0.000
REMARK INTER + INTRA:          -4.969
REMARK INTER:                  -5.186
REMARK INTRA:                   0.217
REMARK UNBOUND:                 0.217
REMARK  Name = opt49.pdb
REMARK  2 active torsions:
REMARK  status: ('A' for Active; 'I' for Inactive)
REMARK    1  A    between atoms: C_4  and  C_7
REMARK    2  A    between atoms: N_8  and  C_11
REMARK                            x       y       z     vdW  Elec       q    Type
REMARK                         _______ _______ _______ _____ _____    ______ ____
ROOT
ATOM      1  N   UNL     1      11.614  12.353  43.658  0.00  0.00    +0.000 NA
ATOM      2  C   UNL     1      12.955  12.218  43.775  0.00  0.00    +0.000 A 
ATOM      3  C   UNL     1      11.053  13.486  44.135  0.00  0.00    +0.000 A 
ATOM      4  C   UNL     1      13.781  13.186  44.353  0.00  0.00    +0.000 A 
ATOM      5  C   UNL     1      11.798  14.499  44.735  0.00  0.00    +0.000 A 
ATOM      6  C   UNL     1      13.178  14.350  44.844  0.00  0.00    +0.000 A 
ENDROOT
BRANCH   4   7
ATOM      7  C   UNL     1      15.296  12.941  44.402  0.00  0.00    +0.000 C 
ATOM      8  N   UNL     1      16.026  13.496  43.242  0.00  0.00    +0.000 NA
ATOM      9  C   UNL     1      16.015  13.617  45.586  0.00  0.00    +0.000 C 
ATOM     10  C   UNL     1      16.258  14.922  43.525  0.00  0.00    +0.000 C 
ATOM     11  C   UNL     1      15.472  13.207  41.901  0.00  0.00    +0.000 C 
ATOM     12  C   UNL     1      16.553  14.956  45.035  0.00  0.00    +0.000 C 
ENDBRANCH   4   7
TORSDOF 1
ENDMDL
MODEL 2
REMARK VINA RESULT:    -4.782      0.870      0.968
REMARK INTER + INTRA:          -4.844
REMARK INTER:                  -5.060
REMARK INTRA:                   0.216
REMARK UNBOUND:                 0.217
REMARK  Name = opt49.pdb
REMARK  2 active torsions:
REMARK  status: ('A' for Active; 'I' for Inactive)
REMARK    1  A    between atoms: C_4  and  C_7
REMARK    2  A    between atoms: N_8  and  C_11
REMARK                            x       y       z     vdW  Elec       q    Type
REMARK                         _______ _______ _______ _____ _____    ______ ____
ROOT
ATOM      1  N   UNL     1      11.715  13.484  44.525  0.00  0.00    +0.000 NA
ATOM      2  C   UNL     1      12.995  13.046  44.564  0.00  0.00    +0.000 A 
ATOM      3  C   UNL     1      11.507  14.819  44.552  0.00  0.00    +0.000 A 
ATOM      4  C   UNL     1      14.101  13.899  44.623  0.00  0.00    +0.000 A 
ATOM      5  C   UNL     1      12.549  15.741  44.621  0.00  0.00    +0.000 A 
ATOM      6  C   UNL     1      13.861  15.277  44.653  0.00  0.00    +0.000 A 
ENDROOT
BRANCH   4   7
ATOM      7  C   UNL     1      15.510  13.291  44.628  0.00  0.00    +0.000 C 
ATOM      8  N   UNL     1      16.295  13.600  43.413  0.00  0.00    +0.000 NA
ATOM      9  C   UNL     1      16.431  13.820  45.747  0.00  0.00    +0.000 C 
ATOM     10  C   UNL     1      16.882  14.936  43.611  0.00  0.00    +0.000 C 
ATOM     11  C   UNL     1      15.623  13.399  42.112  0.00  0.00    +0.000 C 
ATOM     12  C   UNL     1      17.251  14.962  45.105  0.00  0.00    +0.000 C 
ENDBRANCH   4   7
TORSDOF 1
ENDMDL
MODEL 3
REMARK VINA RESULT:    -4.686      1.607      2.055
REMARK INTER + INTRA:          -4.743
REMARK INTER:                  -5.080
REMARK INTRA:                   0.337
REMARK UNBOUND:                 0.217
REMARK  Name = opt49.pdb
REMARK  2 active torsions:
REMARK  status: ('A' for Active; 'I' for Inactive)
REMARK    1  A    between atoms: C_4  and  C_7
REMARK    2  A    between atoms: N_8  and  C_11
REMARK                            x       y       z     vdW  Elec       q    Type
REMARK                         _______ _______ _______ _____ _____    ______ ____
ROOT
ATOM      1  N   UNL     1      13.221  16.566  44.663  0.00  0.00    +0.000 NA
ATOM      2  C   UNL     1      14.193  15.627  44.745  0.00  0.00    +0.000 A 
ATOM      3  C   UNL     1      11.938  16.143  44.671  0.00  0.00    +0.000 A 
ATOM      4  C   UNL     1      13.936  14.257  44.845  0.00  0.00    +0.000 A 
ATOM      5  C   UNL     1      11.590  14.797  44.758  0.00  0.00    +0.000 A 
ATOM      6  C   UNL     1      12.600  13.842  44.849  0.00  0.00    +0.000 A 
ENDROOT
BRANCH   4   7
ATOM      7  C   UNL     1      15.118  13.285  44.967  0.00  0.00    +0.000 C 
ATOM      8  N   UNL     1      15.704  12.895  43.667  0.00  0.00    +0.000 NA
ATOM      9  C   UNL     1      16.341  13.857  45.711  0.00  0.00    +0.000 C 
ATOM     10  C   UNL     1      16.639  13.965  43.280  0.00  0.00    +0.000 C 
ATOM     11  C   UNL     1      14.763  12.473  42.607  0.00  0.00    +0.000 C 
ATOM     12  C   UNL     1      17.284  14.391  44.611  0.00  0.00    +0.000 C 
ENDBRANCH   4   7
TORSDOF 1
ENDMDL
MODEL 4
REMARK VINA RESULT:    -4.562      1.524      4.448
REMARK INTER + INTRA:          -4.612
REMARK INTER:                  -4.828
REMARK INTRA:                   0.216
REMARK UNBOUND:                 0.217
REMARK  Name = opt49.pdb
REMARK  2 active torsions:
REMARK  status: ('A' for Active; 'I' for Inactive)
REMARK    1  A    between atoms: C_4  and  C_7
REMARK    2  A    between atoms: N_8  and  C_11
REMARK                            x       y       z     vdW  Elec       q    Type
REMARK                         _______ _______ _______ _____ _____    ______ ____
ROOT
ATOM      1  N   UNL     1      17.528  14.390  45.493  0.00  0.00    +0.000 NA
ATOM      2  C   UNL     1      16.275  13.914  45.682  0.00  0.00    +0.000 A 
ATOM      3  C   UNL     1      17.979  14.484  44.223  0.00  0.00    +0.000 A 
ATOM      4  C   UNL     1      15.431  13.526  44.638  0.00  0.00    +0.000 A 
ATOM      5  C   UNL     1      17.210  14.111  43.123  0.00  0.00    +0.000 A 
ATOM      6  C   UNL     1      15.920  13.629  43.331  0.00  0.00    +0.000 A 
ENDROOT
BRANCH   4   7
ATOM      7  C   UNL     1      14.016  13.033  44.968  0.00  0.00    +0.000 C 
ATOM      8  N   UNL     1      12.945  13.929  44.480  0.00  0.00    +0.000 NA
ATOM      9  C   UNL     1      13.636  11.692  44.309  0.00  0.00    +0.000 C 
ATOM     10  C   UNL     1      12.719  13.594  43.064  0.00  0.00    +0.000 C 
ATOM     11  C   UNL     1      13.096  15.372  44.766  0.00  0.00    +0.000 C 
ATOM     12  C   UNL     1      12.879  12.065  43.015  0.00  0.00    +0.000 C 
ENDBRANCH   4   7
TORSDOF 1
ENDMDL
MODEL 5
REMARK VINA RESULT:    -4.352      1.486      4.438
REMARK INTER + INTRA:          -4.389
REMARK INTER:                  -4.582
REMARK INTRA:                   0.192
REMARK UNBOUND:                 0.217
REMARK  Name = opt49.pdb
REMARK  2 active torsions:
REMARK  status: ('A' for Active; 'I' for Inactive)
REMARK    1  A    between atoms: C_4  and  C_7
REMARK    2  A    between atoms: N_8  and  C_11
REMARK                            x       y       z     vdW  Elec       q    Type
REMARK                         _______ _______ _______ _____ _____    ______ ____
ROOT
ATOM      1  N   UNL     1      15.340  12.626  43.224  0.00  0.00    +0.000 NA
ATOM      2  C   UNL     1      14.176  12.926  42.601  0.00  0.00    +0.000 A 
ATOM      3  C   UNL     1      15.441  12.918  44.539  0.00  0.00    +0.000 A 
ATOM      4  C   UNL     1      13.083  13.510  43.247  0.00  0.00    +0.000 A 
ATOM      5  C   UNL     1      14.405  13.509  45.260  0.00  0.00    +0.000 A 
ATOM      6  C   UNL     1      13.211  13.806  44.608  0.00  0.00    +0.000 A 
ENDROOT
BRANCH   4   7
ATOM      7  C   UNL     1      11.799  13.773  42.447  0.00  0.00    +0.000 C 
ATOM      8  N   UNL     1      10.701  12.832  42.757  0.00  0.00    +0.000 NA
ATOM      9  C   UNL     1      11.140  15.139  42.729  0.00  0.00    +0.000 C 
ATOM     10  C   UNL     1      10.036  13.335  43.970  0.00  0.00    +0.000 C 
ATOM     11  C   UNL     1      11.039  11.393  42.780  0.00  0.00    +0.000 C 
ATOM     12  C   UNL     1      10.059  14.865  43.798  0.00  0.00    +0.000 C 
ENDBRANCH   4   7
TORSDOF 1
ENDMDL
MODEL 6
REMARK VINA RESULT:    -4.212      1.022      1.091
REMARK INTER + INTRA:          -4.241
REMARK INTER:                  -4.496
REMARK INTRA:                   0.255
REMARK UNBOUND:                 0.217
REMARK  Name = opt49.pdb
REMARK  2 active torsions:
REMARK  status: ('A' for Active; 'I' for Inactive)
REMARK    1  A    between atoms: C_4  and  C_7
REMARK    2  A    between atoms: N_8  and  C_11
REMARK                            x       y       z     vdW  Elec       q    Type
REMARK                         _______ _______ _______ _____ _____    ______ ____
ROOT
ATOM      1  N   UNL     1      11.220  14.015  43.494  0.00  0.00    +0.000 NA
ATOM      2  C   UNL     1      12.382  13.371  43.746  0.00  0.00    +0.000 A 
ATOM      3  C   UNL     1      11.143  15.324  43.822  0.00  0.00    +0.000 A 
ATOM      4  C   UNL     1      13.499  13.988  44.317  0.00  0.00    +0.000 A 
ATOM      5  C   UNL     1      12.203  16.016  44.404  0.00  0.00    +0.000 A 
ATOM      6  C   UNL     1      13.396  15.342  44.652  0.00  0.00    +0.000 A 
ENDROOT
BRANCH   4   7
ATOM      7  C   UNL     1      14.778  13.165  44.526  0.00  0.00    +0.000 C 
ATOM      8  N   UNL     1      15.648  13.105  43.331  0.00  0.00    +0.000 NA
ATOM      9  C   UNL     1      15.737  13.735  45.591  0.00  0.00    +0.000 C 
ATOM     10  C   UNL     1      16.454  14.337  43.325  0.00  0.00    +0.000 C 
ATOM     11  C   UNL     1      14.997  12.776  42.045  0.00  0.00    +0.000 C 
ATOM     12  C   UNL     1      16.768  14.581  44.812  0.00  0.00    +0.000 C 
ENDBRANCH   4   7
TORSDOF 1
ENDMDL
MODEL 7
REMARK VINA RESULT:    -4.129      2.089      2.867
REMARK INTER + INTRA:          -4.154
REMARK INTER:                  -4.415
REMARK INTRA:                   0.261
REMARK UNBOUND:                 0.217
REMARK  Name = opt49.pdb
REMARK  2 active torsions:
REMARK  status: ('A' for Active; 'I' for Inactive)
REMARK    1  A    between atoms: C_4  and  C_7
REMARK    2  A    between atoms: N_8  and  C_11
REMARK                            x       y       z     vdW  Elec       q    Type
REMARK                         _______ _______ _______ _____ _____    ______ ____
ROOT
ATOM      1  N   UNL     1       9.213  12.591  42.201  0.00  0.00    +0.000 NA
ATOM      2  C   UNL     1      10.566  12.601  42.206  0.00  0.00    +0.000 A 
ATOM      3  C   UNL     1       8.578  13.097  43.282  0.00  0.00    +0.000 A 
ATOM      4  C   UNL     1      11.331  13.111  43.259  0.00  0.00    +0.000 A 
ATOM      5  C   UNL     1       9.260  13.617  44.379  0.00  0.00    +0.000 A 
ATOM      6  C   UNL     1      10.653  13.627  44.368  0.00  0.00    +0.000 A 
ENDROOT
BRANCH   4   7
ATOM      7  C   UNL     1      12.862  13.102  43.140  0.00  0.00    +0.000 C 
ATOM      8  N   UNL     1      13.471  14.448  43.206  0.00  0.00    +0.000 NA
ATOM      9  C   UNL     1      13.588  12.365  44.284  0.00  0.00    +0.000 C 
ATOM     10  C   UNL     1      13.595  14.792  44.632  0.00  0.00    +0.000 C 
ATOM     11  C   UNL     1      12.868  15.499  42.359  0.00  0.00    +0.000 C 
ATOM     12  C   UNL     1      13.973  13.460  45.303  0.00  0.00    +0.000 C 
ENDBRANCH   4   7
TORSDOF 1
ENDMDL
MODEL 8
REMARK VINA RESULT:    -4.097      2.370      5.300
REMARK INTER + INTRA:          -4.119
REMARK INTER:                  -4.529
REMARK INTRA:                   0.410
REMARK UNBOUND:                 0.217
REMARK  Name = opt49.pdb
REMARK  2 active torsions:
REMARK  status: ('A' for Active; 'I' for Inactive)
REMARK    1  A    between atoms: C_4  and  C_7
REMARK    2  A    between atoms: N_8  and  C_11
REMARK                            x       y       z     vdW  Elec       q    Type
REMARK                         _______ _______ _______ _____ _____    ______ ____
ROOT
ATOM      1  N   UNL     1      12.480  11.780  43.619  0.00  0.00    +0.000 NA
ATOM      2  C   UNL     1      11.290  12.413  43.495  0.00  0.00    +0.000 A 
ATOM      3  C   UNL     1      13.435  12.381  44.362  0.00  0.00    +0.000 A 
ATOM      4  C   UNL     1      11.001  13.640  44.098  0.00  0.00    +0.000 A 
ATOM      5  C   UNL     1      13.238  13.608  44.991  0.00  0.00    +0.000 A 
ATOM      6  C   UNL     1      12.006  14.245  44.861  0.00  0.00    +0.000 A 
ENDROOT
BRANCH   4   7
ATOM      7  C   UNL     1       9.603  14.248  43.917  0.00  0.00    +0.000 C 
ATOM      8  N   UNL     1       9.323  14.694  42.535  0.00  0.00    +0.000 NA
ATOM      9  C   UNL     1       8.441  13.269  44.178  0.00  0.00    +0.000 C 
ATOM     10  C   UNL     1       8.892  13.506  41.780  0.00  0.00    +0.000 C 
ATOM     11  C   UNL     1      10.361  15.514  41.872  0.00  0.00    +0.000 C 
ATOM     12  C   UNL     1       8.049  12.710  42.793  0.00  0.00    +0.000 C 
ENDBRANCH   4   7
TORSDOF 1
ENDMDL
MODEL 9
REMARK VINA RESULT:    -3.973      1.965      3.554
REMARK INTER + INTRA:          -3.988
REMARK INTER:                  -4.439
REMARK INTRA:                   0.450
REMARK UNBOUND:                 0.217
REMARK  Name = opt49.pdb
REMARK  2 active torsions:
REMARK  status: ('A' for Active; 'I' for Inactive)
REMARK    1  A    between atoms: C_4  and  C_7
REMARK    2  A    between atoms: N_8  and  C_11
REMARK                            x       y       z     vdW  Elec       q    Type
REMARK                         _______ _______ _______ _____ _____    ______ ____
ROOT
ATOM      1  N   UNL     1      13.992  17.098  44.180  0.00  0.00    +0.000 NA
ATOM      2  C   UNL     1      14.030  15.765  44.412  0.00  0.00    +0.000 A 
ATOM      3  C   UNL     1      12.780  17.696  44.157  0.00  0.00    +0.000 A 
ATOM      4  C   UNL     1      12.891  14.986  44.634  0.00  0.00    +0.000 A 
ATOM      5  C   UNL     1      11.593  16.996  44.359  0.00  0.00    +0.000 A 
ATOM      6  C   UNL     1      11.647  15.626  44.603  0.00  0.00    +0.000 A 
ENDROOT
BRANCH   4   7
ATOM      7  C   UNL     1      13.058  13.488  44.921  0.00  0.00    +0.000 C 
ATOM      8  N   UNL     1      12.391  12.614  43.932  0.00  0.00    +0.000 NA
ATOM      9  C   UNL     1      14.514  12.983  44.863  0.00  0.00    +0.000 C 
ATOM     10  C   UNL     1      13.308  12.486  42.787  0.00  0.00    +0.000 C 
ATOM     11  C   UNL     1      10.993  12.946  43.579  0.00  0.00    +0.000 C 
ATOM     12  C   UNL     1      14.702  12.424  43.435  0.00  0.00    +0.000 C 
ENDBRANCH   4   7
TORSDOF 1
ENDMDL
MODEL 10
REMARK VINA RESULT:    -3.962      1.270      4.277
REMARK INTER + INTRA:          -3.976
REMARK INTER:                  -4.349
REMARK INTRA:                   0.372
REMARK UNBOUND:                 0.217
REMARK  Name = opt49.pdb
REMARK  2 active torsions:
REMARK  status: ('A' for Active; 'I' for Inactive)
REMARK    1  A    between atoms: C_4  and  C_7
REMARK    2  A    between atoms: N_8  and  C_11
REMARK                            x       y       z     vdW  Elec       q    Type
REMARK                         _______ _______ _______ _____ _____    ______ ____
ROOT
ATOM      1  N   UNL     1      16.571  13.828  42.076  0.00  0.00    +0.000 NA
ATOM      2  C   UNL     1      15.468  13.465  42.771  0.00  0.00    +0.000 A 
ATOM      3  C   UNL     1      17.603  14.358  42.769  0.00  0.00    +0.000 A 
ATOM      4  C   UNL     1      15.348  13.603  44.156  0.00  0.00    +0.000 A 
ATOM      5  C   UNL     1      17.567  14.540  44.149  0.00  0.00    +0.000 A 
ATOM      6  C   UNL     1      16.428  14.156  44.853  0.00  0.00    +0.000 A 
ENDROOT
BRANCH   4   7
ATOM      7  C   UNL     1      14.062  13.124  44.844  0.00  0.00    +0.000 C 
ATOM      8  N   UNL     1      12.899  14.007  44.611  0.00  0.00    +0.000 NA
ATOM      9  C   UNL     1      13.537  11.764  44.341  0.00  0.00    +0.000 C 
ATOM     10  C   UNL     1      12.329  13.630  43.306  0.00  0.00    +0.000 C 
ATOM     11  C   UNL     1      13.109  15.458  44.805  0.00  0.00    +0.000 C 
ATOM     12  C   UNL     1      12.480  12.099  43.265  0.00  0.00    +0.000 C 
ENDBRANCH   4   7
TORSDOF 1
ENDMDL
MODEL 11
REMARK VINA RESULT:    -3.921      2.144      3.608
REMARK INTER + INTRA:          -3.933
REMARK INTER:                  -4.269
REMARK INTRA:                   0.336
REMARK UNBOUND:                 0.217
REMARK  Name = opt49.pdb
REMARK  2 active torsions:
REMARK  status: ('A' for Active; 'I' for Inactive)
REMARK    1  A    between atoms: C_4  and  C_7
REMARK    2  A    between atoms: N_8  and  C_11
REMARK                            x       y       z     vdW  Elec       q    Type
REMARK                         _______ _______ _______ _____ _____    ______ ____
ROOT
ATOM      1  N   UNL     1      12.914  12.527  44.495  0.00  0.00    +0.000 NA
ATOM      2  C   UNL     1      12.813  13.876  44.536  0.00  0.00    +0.000 A 
ATOM      3  C   UNL     1      14.154  11.992  44.433  0.00  0.00    +0.000 A 
ATOM      4  C   UNL     1      13.917  14.734  44.525  0.00  0.00    +0.000 A 
ATOM      5  C   UNL     1      15.308  12.771  44.409  0.00  0.00    +0.000 A 
ATOM      6  C   UNL     1      15.190  14.158  44.458  0.00  0.00    +0.000 A 
ENDROOT
BRANCH   4   7
ATOM      7  C   UNL     1      13.684  16.249  44.610  0.00  0.00    +0.000 C 
ATOM      8  N   UNL     1      13.736  16.933  43.300  0.00  0.00    +0.000 NA
ATOM      9  C   UNL     1      12.288  16.652  45.127  0.00  0.00    +0.000 C 
ATOM     10  C   UNL     1      12.410  16.775  42.681  0.00  0.00    +0.000 C 
ATOM     11  C   UNL     1      14.880  16.610  42.421  0.00  0.00    +0.000 C 
ATOM     12  C   UNL     1      11.432  16.895  43.864  0.00  0.00    +0.000 C 
ENDBRANCH   4   7
TORSDOF 1
ENDMDL
MODEL 12
REMARK VINA RESULT:    -3.904      1.875      2.676
REMARK INTER + INTRA:          -3.916
REMARK INTER:                  -4.194
REMARK INTRA:                   0.278
REMARK UNBOUND:                 0.217
REMARK  Name = opt49.pdb
REMARK  2 active torsions:
REMARK  status: ('A' for Active; 'I' for Inactive)
REMARK    1  A    between atoms: C_4  and  C_7
REMARK    2  A    between atoms: N_8  and  C_11
REMARK                            x       y       z     vdW  Elec       q    Type
REMARK                         _______ _______ _______ _____ _____    ______ ____
ROOT
ATOM      1  N   UNL     1      10.218  15.757  43.530  0.00  0.00    +0.000 NA
ATOM      2  C   UNL     1      10.869  14.597  43.781  0.00  0.00    +0.000 A 
ATOM      3  C   UNL     1      10.873  16.911  43.782  0.00  0.00    +0.000 A 
ATOM      4  C   UNL     1      12.174  14.536  44.277  0.00  0.00    +0.000 A 
ATOM      5  C   UNL     1      12.171  16.944  44.285  0.00  0.00    +0.000 A 
ATOM      6  C   UNL     1      12.832  15.744  44.533  0.00  0.00    +0.000 A 
ENDROOT
BRANCH   4   7
ATOM      7  C   UNL     1      12.826  13.163  44.491  0.00  0.00    +0.000 C 
ATOM      8  N   UNL     1      13.386  12.571  43.258  0.00  0.00    +0.000 NA
ATOM      9  C   UNL     1      14.053  13.177  45.426  0.00  0.00    +0.000 C 
ATOM     10  C   UNL     1      14.721  13.162  43.067  0.00  0.00    +0.000 C 
ATOM     11  C   UNL     1      12.521  12.578  42.058  0.00  0.00    +0.000 C 
ATOM     12  C   UNL     1      15.281  13.280  44.495  0.00  0.00    +0.000 C 
ENDBRANCH   4   7
TORSDOF 1
ENDMDL
MODEL 13
REMARK VINA RESULT:    -3.848      3.763      7.241
REMARK INTER + INTRA:          -3.856
REMARK INTER:                  -4.054
REMARK INTRA:                   0.198
REMARK UNBOUND:                 0.217
REMARK  Name = opt49.pdb
REMARK  2 active torsions:
REMARK  status: ('A' for Active; 'I' for Inactive)
REMARK    1  A    between atoms: C_4  and  C_7
REMARK    2  A    between atoms: N_8  and  C_11
REMARK                            x       y       z     vdW  Elec       q    Type
REMARK                         _______ _______ _______ _____ _____    ______ ____
ROOT
ATOM      1  N   UNL     1      10.815  13.675  44.622  0.00  0.00    +0.000 NA
ATOM      2  C   UNL     1       9.465  13.612  44.540  0.00  0.00    +0.000 A 
ATOM      3  C   UNL     1      11.531  13.052  43.660  0.00  0.00    +0.000 A 
ATOM      4  C   UNL     1       8.784  12.948  43.517  0.00  0.00    +0.000 A 
ATOM      5  C   UNL     1      10.935  12.359  42.609  0.00  0.00    +0.000 A 
ATOM      6  C   UNL     1       9.546  12.308  42.533  0.00  0.00    +0.000 A 
ENDROOT
BRANCH   4   7
ATOM      7  C   UNL     1       7.249  12.972  43.507  0.00  0.00    +0.000 C 
ATOM      8  N   UNL     1       6.675  13.974  42.582  0.00  0.00    +0.000 NA
ATOM      9  C   UNL     1       6.592  11.667  43.012  0.00  0.00    +0.000 C 
ATOM     10  C   UNL     1       6.664  13.363  41.242  0.00  0.00    +0.000 C 
ATOM     11  C   UNL     1       7.238  15.340  42.641  0.00  0.00    +0.000 C 
ATOM     12  C   UNL     1       6.306  11.890  41.510  0.00  0.00    +0.000 C 
ENDBRANCH   4   7
TORSDOF 1
ENDMDL
MODEL 14
REMARK VINA RESULT:    -3.747      1.472      4.292
REMARK INTER + INTRA:          -3.749
REMARK INTER:                  -3.941
REMARK INTRA:                   0.192
REMARK UNBOUND:                 0.217
REMARK  Name = opt49.pdb
REMARK  2 active torsions:
REMARK  status: ('A' for Active; 'I' for Inactive)
REMARK    1  A    between atoms: C_4  and  C_7
REMARK    2  A    between atoms: N_8  and  C_11
REMARK                            x       y       z     vdW  Elec       q    Type
REMARK                         _______ _______ _______ _____ _____    ______ ____
ROOT
ATOM      1  N   UNL     1      17.883  14.375  43.223  0.00  0.00    +0.000 NA
ATOM      2  C   UNL     1      16.610  14.491  42.779  0.00  0.00    +0.000 A 
ATOM      3  C   UNL     1      18.085  14.380  44.559  0.00  0.00    +0.000 A 
ATOM      4  C   UNL     1      15.505  14.605  43.626  0.00  0.00    +0.000 A 
ATOM      5  C   UNL     1      17.043  14.499  45.476  0.00  0.00    +0.000 A 
ATOM      6  C   UNL     1      15.737  14.610  45.006  0.00  0.00    +0.000 A 
ENDROOT
BRANCH   4   7
ATOM      7  C   UNL     1      14.101  14.695  43.011  0.00  0.00    +0.000 C 
ATOM      8  N   UNL     1      13.319  13.445  43.127  0.00  0.00    +0.000 NA
ATOM      9  C   UNL     1      13.170  15.719  43.690  0.00  0.00    +0.000 C 
ATOM     10  C   UNL     1      12.718  13.440  44.471  0.00  0.00    +0.000 C 
ATOM     11  C   UNL     1      14.000  12.190  42.742  0.00  0.00    +0.000 C 
ATOM     12  C   UNL     1      12.342  14.912  44.714  0.00  0.00    +0.000 C 
ENDBRANCH   4   7
TORSDOF 1
ENDMDL
MODEL 15
REMARK VINA RESULT:    -3.722      2.493      5.146
REMARK INTER + INTRA:          -3.723
REMARK INTER:                  -3.932
REMARK INTRA:                   0.209
REMARK UNBOUND:                 0.217
REMARK  Name = opt49.pdb
REMARK  2 active torsions:
REMARK  status: ('A' for Active; 'I' for Inactive)
REMARK    1  A    between atoms: C_4  and  C_7
REMARK    2  A    between atoms: N_8  and  C_11
REMARK                            x       y       z     vdW  Elec       q    Type
REMARK                         _______ _______ _______ _____ _____    ______ ____
ROOT
ATOM      1  N   UNL     1      12.864  11.618  43.710  0.00  0.00    +0.000 NA
ATOM      2  C   UNL     1      11.877  12.180  42.975  0.00  0.00    +0.000 A 
ATOM      3  C   UNL     1      13.406  12.358  44.702  0.00  0.00    +0.000 A 
ATOM      4  C   UNL     1      11.391  13.472  43.194  0.00  0.00    +0.000 A 
ATOM      5  C   UNL     1      12.990  13.657  44.984  0.00  0.00    +0.000 A 
ATOM      6  C   UNL     1      11.969  14.221  44.224  0.00  0.00    +0.000 A 
ENDROOT
BRANCH   4   7
ATOM      7  C   UNL     1      10.242  13.994  42.319  0.00  0.00    +0.000 C 
ATOM      8  N   UNL     1       8.904  13.810  42.922  0.00  0.00    +0.000 NA
ATOM      9  C   UNL     1      10.272  15.514  42.065  0.00  0.00    +0.000 C 
ATOM     10  C   UNL     1       8.694  14.934  43.849  0.00  0.00    +0.000 C 
ATOM     11  C   UNL     1       8.598  12.474  43.478  0.00  0.00    +0.000 C 
ATOM     12  C   UNL     1       9.340  16.132  43.131  0.00  0.00    +0.000 C 
ENDBRANCH   4   7
TORSDOF 1
ENDMDL
MODEL 16
REMARK VINA RESULT:    -3.721      2.035      3.170
REMARK INTER + INTRA:          -3.722
REMARK INTER:                  -3.923
REMARK INTRA:                   0.201
REMARK UNBOUND:                 0.217
REMARK  Name = opt49.pdb
REMARK  2 active torsions:
REMARK  status: ('A' for Active; 'I' for Inactive)
REMARK    1  A    between atoms: C_4  and  C_7
REMARK    2  A    between atoms: N_8  and  C_11
REMARK                            x       y       z     vdW  Elec       q    Type
REMARK                         _______ _______ _______ _____ _____    ______ ____
ROOT
ATOM      1  N   UNL     1      13.442  11.774  44.457  0.00  0.00    +0.000 NA
ATOM      2  C   UNL     1      13.702  13.066  44.768  0.00  0.00    +0.000 A 
ATOM      3  C   UNL     1      12.468  11.530  43.553  0.00  0.00    +0.000 A 
ATOM      4  C   UNL     1      13.024  14.148  44.200  0.00  0.00    +0.000 A 
ATOM      5  C   UNL     1      11.735  12.547  42.945  0.00  0.00    +0.000 A 
ATOM      6  C   UNL     1      12.017  13.871  43.269  0.00  0.00    +0.000 A 
ENDROOT
BRANCH   4   7
ATOM      7  C   UNL     1      13.428  15.573  44.602  0.00  0.00    +0.000 C 
ATOM      8  N   UNL     1      14.119  16.321  43.530  0.00  0.00    +0.000 NA
ATOM      9  C   UNL     1      12.243  16.505  44.929  0.00  0.00    +0.000 C 
ATOM     10  C   UNL     1      13.074  16.876  42.652  0.00  0.00    +0.000 C 
ATOM     11  C   UNL     1      15.219  15.624  42.829  0.00  0.00    +0.000 C 
ATOM     12  C   UNL     1      11.951  17.278  43.624  0.00  0.00    +0.000 C 
ENDBRANCH   4   7
TORSDOF 1
ENDMDL
MODEL 17
REMARK VINA RESULT:    -3.633      1.801      2.827
REMARK INTER + INTRA:          -3.629
REMARK INTER:                  -3.838
REMARK INTRA:                   0.209
REMARK UNBOUND:                 0.217
REMARK  Name = opt49.pdb
REMARK  2 active torsions:
REMARK  status: ('A' for Active; 'I' for Inactive)
REMARK    1  A    between atoms: C_4  and  C_7
REMARK    2  A    between atoms: N_8  and  C_11
REMARK                            x       y       z     vdW  Elec       q    Type
REMARK                         _______ _______ _______ _____ _____    ______ ____
ROOT
ATOM      1  N   UNL     1      13.146  13.323  42.735  0.00  0.00    +0.000 NA
ATOM      2  C   UNL     1      14.206  14.152  42.588  0.00  0.00    +0.000 A 
ATOM      3  C   UNL     1      13.221  12.374  43.694  0.00  0.00    +0.000 A 
ATOM      4  C   UNL     1      15.358  14.081  43.375  0.00  0.00    +0.000 A 
ATOM      5  C   UNL     1      14.334  12.224  44.518  0.00  0.00    +0.000 A 
ATOM      6  C   UNL     1      15.414  13.088  44.360  0.00  0.00    +0.000 A 
ENDROOT
BRANCH   4   7
ATOM      7  C   UNL     1      16.484  15.097  43.142  0.00  0.00    +0.000 C 
ATOM      8  N   UNL     1      16.669  16.047  44.260  0.00  0.00    +0.000 NA
ATOM      9  C   UNL     1      17.890  14.476  43.014  0.00  0.00    +0.000 C 
ATOM     10  C   UNL     1      17.505  15.369  45.264  0.00  0.00    +0.000 C 
ATOM     11  C   UNL     1      15.454  16.699  44.794  0.00  0.00    +0.000 C 
ATOM     12  C   UNL     1      18.512  14.562  44.425  0.00  0.00    +0.000 C 
ENDBRANCH   4   7
TORSDOF 1
ENDMDL
MODEL 18
REMARK VINA RESULT:    -3.389      2.179      3.329
REMARK INTER + INTRA:          -3.371
REMARK INTER:                  -3.560
REMARK INTRA:                   0.190
REMARK UNBOUND:                 0.217
REMARK  Name = opt49.pdb
REMARK  2 active torsions:
REMARK  status: ('A' for Active; 'I' for Inactive)
REMARK    1  A    between atoms: C_4  and  C_7
REMARK    2  A    between atoms: N_8  and  C_11
REMARK                            x       y       z     vdW  Elec       q    Type
REMARK                         _______ _______ _______ _____ _____    ______ ____
ROOT
ATOM      1  N   UNL     1       8.464  13.597  43.965  0.00  0.00    +0.000 NA
ATOM      2  C   UNL     1       9.717  13.562  44.475  0.00  0.00    +0.000 A 
ATOM      3  C   UNL     1       8.260  14.331  42.848  0.00  0.00    +0.000 A 
ATOM      4  C   UNL     1      10.801  14.235  43.905  0.00  0.00    +0.000 A 
ATOM      5  C   UNL     1       9.281  15.041  42.220  0.00  0.00    +0.000 A 
ATOM      6  C   UNL     1      10.567  14.991  42.751  0.00  0.00    +0.000 A 
ENDROOT
BRANCH   4   7
ATOM      7  C   UNL     1      12.187  14.096  44.551  0.00  0.00    +0.000 C 
ATOM      8  N   UNL     1      13.101  13.200  43.810  0.00  0.00    +0.000 NA
ATOM      9  C   UNL     1      13.000  15.405  44.609  0.00  0.00    +0.000 C 
ATOM     10  C   UNL     1      13.698  13.998  42.726  0.00  0.00    +0.000 C 
ATOM     11  C   UNL     1      12.562  11.887  43.395  0.00  0.00    +0.000 C 
ATOM     12  C   UNL     1      13.910  15.384  43.361  0.00  0.00    +0.000 C 
ENDBRANCH   4   7
TORSDOF 1
ENDMDL
