MODEL 1
REMARK VINA RESULT:    -6.876      0.000      0.000
REMARK INTER + INTRA:          -7.794
REMARK INTER:                  -7.479
REMARK INTRA:                  -0.315
REMARK UNBOUND:                -0.315
REMARK  Name = opt47.pdb
REMARK  2 active torsions:
REMARK  status: ('A' for Active; 'I' for Inactive)
REMARK    1  A    between atoms: C_7  and  C_11
REMARK    2  A    between atoms: C_10  and  O_13
REMARK                            x       y       z     vdW  Elec       q    Type
REMARK                         _______ _______ _______ _____ _____    ______ ____
ROOT
ATOM      1  O   UNL     1      11.474  11.523  40.754  0.00  0.00    +0.000 OA
ATOM      2  C   UNL     1      11.237  12.061  41.817  0.00  0.00    +0.000 A 
ATOM      3  C   UNL     1      12.261  12.603  42.716  0.00  0.00    +0.000 A 
ATOM      4  C   UNL     1       9.876  12.222  42.381  0.00  0.00    +0.000 A 
ATOM      5  C   UNL     1      11.782  13.137  43.890  0.00  0.00    +0.000 A 
ATOM      6  C   UNL     1      13.687  12.592  42.497  0.00  0.00    +0.000 A 
ATOM      7  C   UNL     1       9.639  12.710  43.373  0.00  0.00    +0.000 A 
ATOM      8  O   UNL     1      10.412  13.094  44.100  0.00  0.00    +0.000 OA
ATOM      9  C   UNL     1      12.694  13.680  44.866  0.00  0.00    +0.000 A 
ATOM     10  C   UNL     1      14.562  13.109  43.449  0.00  0.00    +0.000 A 
ATOM     11  C   UNL     1      14.066  13.654  44.631  0.00  0.00    +0.000 A 
ENDROOT
BRANCH   7  12
ATOM     12  C   UNL     1       8.230  12.918  43.892  0.00  0.00    +0.000 A 
ATOM     13  C   UNL     1       7.958  13.856  44.911  0.00  0.00    +0.000 A 
ATOM     14  C   UNL     1       7.152  12.160  43.386  0.00  0.00    +0.000 A 
ATOM     15  C   UNL     1       6.666  14.004  45.415  0.00  0.00    +0.000 A 
ATOM     16  C   UNL     1       5.865  12.320  43.897  0.00  0.00    +0.000 A 
ATOM     17  C   UNL     1       5.622  13.235  44.914  0.00  0.00    +0.000 A 
ENDBRANCH   7  12
BRANCH  10  18
ATOM     18  O   UNL     1      15.907  13.082  43.229  0.00  0.00    +0.000 OA
ATOM     19  H   UNL     1      16.195  12.178  43.005  0.00  0.00    +0.000 HD
ENDBRANCH  10  18
TORSDOF 2
ENDMDL
MODEL 2
REMARK VINA RESULT:    -6.607      2.546      5.109
REMARK INTER + INTRA:          -7.502
REMARK INTER:                  -7.216
REMARK INTRA:                  -0.286
REMARK UNBOUND:                -0.315
REMARK  Name = opt47.pdb
REMARK  2 active torsions:
REMARK  status: ('A' for Active; 'I' for Inactive)
REMARK    1  A    between atoms: C_7  and  C_11
REMARK    2  A    between atoms: C_10  and  O_13
REMARK                            x       y       z     vdW  Elec       q    Type
REMARK                         _______ _______ _______ _____ _____    ______ ____
ROOT
ATOM      1  O   UNL     1      16.550  13.861  46.521  0.00  0.00    +0.000 OA
ATOM      2  C   UNL     1      16.023  13.841  45.426  0.00  0.00    +0.000 A 
ATOM      3  C   UNL     1      16.734  14.069  44.164  0.00  0.00    +0.000 A 
ATOM      4  C   UNL     1      14.576  13.614  45.204  0.00  0.00    +0.000 A 
ATOM      5  C   UNL     1      15.944  14.041  43.037  0.00  0.00    +0.000 A 
ATOM      6  C   UNL     1      18.141  14.347  44.009  0.00  0.00    +0.000 A 
ATOM      7  C   UNL     1      14.069  13.603  44.193  0.00  0.00    +0.000 A 
ATOM      8  O   UNL     1      14.586  13.818  43.214  0.00  0.00    +0.000 OA
ATOM      9  C   UNL     1      16.523  14.275  41.738  0.00  0.00    +0.000 A 
ATOM     10  C   UNL     1      18.691  14.582  42.752  0.00  0.00    +0.000 A 
ATOM     11  C   UNL     1      17.883  14.544  41.617  0.00  0.00    +0.000 A 
ENDROOT
BRANCH   7  12
ATOM     12  C   UNL     1      12.597  13.302  43.995  0.00  0.00    +0.000 A 
ATOM     13  C   UNL     1      12.172  12.274  43.127  0.00  0.00    +0.000 A 
ATOM     14  C   UNL     1      11.606  14.060  44.655  0.00  0.00    +0.000 A 
ATOM     15  C   UNL     1      10.814  12.038  42.913  0.00  0.00    +0.000 A 
ATOM     16  C   UNL     1      10.252  13.813  44.436  0.00  0.00    +0.000 A 
ATOM     17  C   UNL     1       9.855  12.808  43.561  0.00  0.00    +0.000 A 
ENDBRANCH   7  12
BRANCH  10  18
ATOM     18  O   UNL     1      20.021  14.852  42.625  0.00  0.00    +0.000 OA
ATOM     19  H   UNL     1      20.203  15.777  42.875  0.00  0.00    +0.000 HD
ENDBRANCH  10  18
TORSDOF 2
ENDMDL
MODEL 3
REMARK VINA RESULT:    -6.534      1.661      6.332
REMARK INTER + INTRA:          -7.422
REMARK INTER:                  -7.117
REMARK INTRA:                  -0.306
REMARK UNBOUND:                -0.315
REMARK  Name = opt47.pdb
REMARK  2 active torsions:
REMARK  status: ('A' for Active; 'I' for Inactive)
REMARK    1  A    between atoms: C_7  and  C_11
REMARK    2  A    between atoms: C_10  and  O_13
REMARK                            x       y       z     vdW  Elec       q    Type
REMARK                         _______ _______ _______ _____ _____    ______ ____
ROOT
ATOM      1  O   UNL     1      11.362  11.499  40.657  0.00  0.00    +0.000 OA
ATOM      2  C   UNL     1      11.593  12.115  41.679  0.00  0.00    +0.000 A 
ATOM      3  C   UNL     1      10.563  12.595  42.605  0.00  0.00    +0.000 A 
ATOM      4  C   UNL     1      12.952  12.502  42.127  0.00  0.00    +0.000 A 
ATOM      5  C   UNL     1      11.034  13.306  43.685  0.00  0.00    +0.000 A 
ATOM      6  C   UNL     1       9.137  12.422  42.467  0.00  0.00    +0.000 A 
ATOM      7  C   UNL     1      13.182  13.085  43.068  0.00  0.00    +0.000 A 
ATOM      8  O   UNL     1      12.405  13.501  43.772  0.00  0.00    +0.000 OA
ATOM      9  C   UNL     1      10.116  13.851  44.653  0.00  0.00    +0.000 A 
ATOM     10  C   UNL     1       8.255  12.960  43.400  0.00  0.00    +0.000 A 
ATOM     11  C   UNL     1       8.745  13.672  44.494  0.00  0.00    +0.000 A 
ENDROOT
BRANCH   7  12
ATOM     12  C   UNL     1      14.589  13.407  43.533  0.00  0.00    +0.000 A 
ATOM     13  C   UNL     1      14.911  13.458  44.906  0.00  0.00    +0.000 A 
ATOM     14  C   UNL     1      15.612  13.692  42.604  0.00  0.00    +0.000 A 
ATOM     15  C   UNL     1      16.195  13.805  45.324  0.00  0.00    +0.000 A 
ATOM     16  C   UNL     1      16.893  14.035  43.034  0.00  0.00    +0.000 A 
ATOM     17  C   UNL     1      17.184  14.098  44.391  0.00  0.00    +0.000 A 
ENDBRANCH   7  12
BRANCH  10  18
ATOM     18  O   UNL     1       6.911  12.794  43.249  0.00  0.00    +0.000 OA
ATOM     19  H   UNL     1       6.586  13.332  42.504  0.00  0.00    +0.000 HD
ENDBRANCH  10  18
TORSDOF 2
ENDMDL
MODEL 4
REMARK VINA RESULT:    -6.379      3.738      5.513
REMARK INTER + INTRA:          -7.253
REMARK INTER:                  -6.945
REMARK INTRA:                  -0.308
REMARK UNBOUND:                -0.315
REMARK  Name = opt47.pdb
REMARK  2 active torsions:
REMARK  status: ('A' for Active; 'I' for Inactive)
REMARK    1  A    between atoms: C_7  and  C_11
REMARK    2  A    between atoms: C_10  and  O_13
REMARK                            x       y       z     vdW  Elec       q    Type
REMARK                         _______ _______ _______ _____ _____    ______ ____
ROOT
ATOM      1  O   UNL     1      10.448  13.464  44.506  0.00  0.00    +0.000 OA
ATOM      2  C   UNL     1      11.432  14.177  44.488  0.00  0.00    +0.000 A 
ATOM      3  C   UNL     1      12.811  13.680  44.463  0.00  0.00    +0.000 A 
ATOM      4  C   UNL     1      11.386  15.658  44.522  0.00  0.00    +0.000 A 
ATOM      5  C   UNL     1      13.783  14.655  44.485  0.00  0.00    +0.000 A 
ATOM      6  C   UNL     1      13.226  12.298  44.454  0.00  0.00    +0.000 A 
ATOM      7  C   UNL     1      12.293  16.334  44.517  0.00  0.00    +0.000 A 
ATOM      8  O   UNL     1      13.362  15.975  44.541  0.00  0.00    +0.000 OA
ATOM      9  C   UNL     1      15.178  14.291  44.488  0.00  0.00    +0.000 A 
ATOM     10  C   UNL     1      14.575  11.954  44.467  0.00  0.00    +0.000 A 
ATOM     11  C   UNL     1      15.550  12.949  44.482  0.00  0.00    +0.000 A 
ENDROOT
BRANCH   7  12
ATOM     12  C   UNL     1      12.210  17.848  44.485  0.00  0.00    +0.000 A 
ATOM     13  C   UNL     1      11.130  18.507  43.860  0.00  0.00    +0.000 A 
ATOM     14  C   UNL     1      13.227  18.642  45.057  0.00  0.00    +0.000 A 
ATOM     15  C   UNL     1      11.089  19.899  43.792  0.00  0.00    +0.000 A 
ATOM     16  C   UNL     1      13.174  20.033  44.984  0.00  0.00    +0.000 A 
ATOM     17  C   UNL     1      12.110  20.662  44.348  0.00  0.00    +0.000 A 
ENDBRANCH   7  12
BRANCH  10  18
ATOM     18  O   UNL     1      14.948  10.643  44.467  0.00  0.00    +0.000 OA
ATOM     19  H   UNL     1      14.202  10.080  44.189  0.00  0.00    +0.000 HD
ENDBRANCH  10  18
TORSDOF 2
ENDMDL
MODEL 5
REMARK VINA RESULT:    -6.261      1.654      2.618
REMARK INTER + INTRA:          -7.126
REMARK INTER:                  -6.827
REMARK INTRA:                  -0.299
REMARK UNBOUND:                -0.315
REMARK  Name = opt47.pdb
REMARK  2 active torsions:
REMARK  status: ('A' for Active; 'I' for Inactive)
REMARK    1  A    between atoms: C_7  and  C_11
REMARK    2  A    between atoms: C_10  and  O_13
REMARK                            x       y       z     vdW  Elec       q    Type
REMARK                         _______ _______ _______ _____ _____    ______ ____
ROOT
ATOM      1  O   UNL     1      12.194  16.954  44.355  0.00  0.00    +0.000 OA
ATOM      2  C   UNL     1      11.992  15.756  44.347  0.00  0.00    +0.000 A 
ATOM      3  C   UNL     1      13.041  14.741  44.485  0.00  0.00    +0.000 A 
ATOM      4  C   UNL     1      10.657  15.139  44.165  0.00  0.00    +0.000 A 
ATOM      5  C   UNL     1      12.604  13.438  44.410  0.00  0.00    +0.000 A 
ATOM      6  C   UNL     1      14.453  14.983  44.650  0.00  0.00    +0.000 A 
ATOM      7  C   UNL     1      10.454  14.027  44.143  0.00  0.00    +0.000 A 
ATOM      8  O   UNL     1      11.249  13.229  44.204  0.00  0.00    +0.000 OA
ATOM      9  C   UNL     1      13.545  12.349  44.508  0.00  0.00    +0.000 A 
ATOM     10  C   UNL     1      15.357  13.927  44.733  0.00  0.00    +0.000 A 
ATOM     11  C   UNL     1      14.903  12.612  44.664  0.00  0.00    +0.000 A 
ENDROOT
BRANCH   7  12
ATOM     12  C   UNL     1       9.067  13.429  44.021  0.00  0.00    +0.000 A 
ATOM     13  C   UNL     1       7.972  13.972  44.728  0.00  0.00    +0.000 A 
ATOM     14  C   UNL     1       8.835  12.293  43.216  0.00  0.00    +0.000 A 
ATOM     15  C   UNL     1       6.711  13.384  44.648  0.00  0.00    +0.000 A 
ATOM     16  C   UNL     1       7.568  11.716  43.142  0.00  0.00    +0.000 A 
ATOM     17  C   UNL     1       6.508  12.255  43.861  0.00  0.00    +0.000 A 
ENDBRANCH   7  12
BRANCH  10  18
ATOM     18  O   UNL     1      16.690  14.175  44.881  0.00  0.00    +0.000 OA
ATOM     19  H   UNL     1      17.044  13.674  45.639  0.00  0.00    +0.000 HD
ENDBRANCH  10  18
TORSDOF 2
ENDMDL
MODEL 6
REMARK VINA RESULT:    -6.123      2.546      3.540
REMARK INTER + INTRA:          -6.975
REMARK INTER:                  -6.657
REMARK INTRA:                  -0.318
REMARK UNBOUND:                -0.315
REMARK  Name = opt47.pdb
REMARK  2 active torsions:
REMARK  status: ('A' for Active; 'I' for Inactive)
REMARK    1  A    between atoms: C_7  and  C_11
REMARK    2  A    between atoms: C_10  and  O_13
REMARK                            x       y       z     vdW  Elec       q    Type
REMARK                         _______ _______ _______ _____ _____    ______ ____
ROOT
ATOM      1  O   UNL     1      13.596  11.567  44.650  0.00  0.00    +0.000 OA
ATOM      2  C   UNL     1      13.438  12.771  44.587  0.00  0.00    +0.000 A 
ATOM      3  C   UNL     1      14.515  13.754  44.737  0.00  0.00    +0.000 A 
ATOM      4  C   UNL     1      12.125  13.427  44.379  0.00  0.00    +0.000 A 
ATOM      5  C   UNL     1      14.116  15.070  44.669  0.00  0.00    +0.000 A 
ATOM      6  C   UNL     1      15.908  13.470  44.978  0.00  0.00    +0.000 A 
ATOM      7  C   UNL     1      11.960  14.544  44.328  0.00  0.00    +0.000 A 
ATOM      8  O   UNL     1      12.765  15.319  44.484  0.00  0.00    +0.000 OA
ATOM      9  C   UNL     1      15.081  16.130  44.827  0.00  0.00    +0.000 A 
ATOM     10  C   UNL     1      16.833  14.499  45.139  0.00  0.00    +0.000 A 
ATOM     11  C   UNL     1      16.419  15.828  45.062  0.00  0.00    +0.000 A 
ENDROOT
BRANCH   7  12
ATOM     12  C   UNL     1      10.614  15.182  44.048  0.00  0.00    +0.000 A 
ATOM     13  C   UNL     1      10.501  16.565  43.789  0.00  0.00    +0.000 A 
ATOM     14  C   UNL     1       9.430  14.414  44.065  0.00  0.00    +0.000 A 
ATOM     15  C   UNL     1       9.252  17.151  43.581  0.00  0.00    +0.000 A 
ATOM     16  C   UNL     1       8.188  15.011  43.854  0.00  0.00    +0.000 A 
ATOM     17  C   UNL     1       8.097  16.378  43.619  0.00  0.00    +0.000 A 
ENDBRANCH   7  12
BRANCH  10  18
ATOM     18  O   UNL     1      18.144  14.213  45.375  0.00  0.00    +0.000 OA
ATOM     19  H   UNL     1      18.232  13.315  45.744  0.00  0.00    +0.000 HD
ENDBRANCH  10  18
TORSDOF 2
ENDMDL
MODEL 7
REMARK VINA RESULT:    -6.004      2.198      5.976
REMARK INTER + INTRA:          -6.846
REMARK INTER:                  -6.535
REMARK INTRA:                  -0.311
REMARK UNBOUND:                -0.315
REMARK  Name = opt47.pdb
REMARK  2 active torsions:
REMARK  status: ('A' for Active; 'I' for Inactive)
REMARK    1  A    between atoms: C_7  and  C_11
REMARK    2  A    between atoms: C_10  and  O_13
REMARK                            x       y       z     vdW  Elec       q    Type
REMARK                         _______ _______ _______ _____ _____    ______ ____
ROOT
ATOM      1  O   UNL     1      10.565  11.493  42.015  0.00  0.00    +0.000 OA
ATOM      2  C   UNL     1      10.309  12.400  42.783  0.00  0.00    +0.000 A 
ATOM      3  C   UNL     1       8.994  12.619  43.393  0.00  0.00    +0.000 A 
ATOM      4  C   UNL     1      11.282  13.440  43.193  0.00  0.00    +0.000 A 
ATOM      5  C   UNL     1       8.906  13.728  44.204  0.00  0.00    +0.000 A 
ATOM      6  C   UNL     1       7.811  11.818  43.194  0.00  0.00    +0.000 A 
ATOM      7  C   UNL     1      11.056  14.296  43.896  0.00  0.00    +0.000 A 
ATOM      8  O   UNL     1      10.042  14.510  44.343  0.00  0.00    +0.000 OA
ATOM      9  C   UNL     1       7.657  14.063  44.842  0.00  0.00    +0.000 A 
ATOM     10  C   UNL     1       6.606  12.153  43.805  0.00  0.00    +0.000 A 
ATOM     11  C   UNL     1       6.530  13.274  44.630  0.00  0.00    +0.000 A 
ENDROOT
BRANCH   7  12
ATOM     12  C   UNL     1      12.092  15.307  44.348  0.00  0.00    +0.000 A 
ATOM     13  C   UNL     1      11.719  16.612  44.734  0.00  0.00    +0.000 A 
ATOM     14  C   UNL     1      13.464  14.978  44.371  0.00  0.00    +0.000 A 
ATOM     15  C   UNL     1      12.684  17.549  45.101  0.00  0.00    +0.000 A 
ATOM     16  C   UNL     1      14.419  15.923  44.741  0.00  0.00    +0.000 A 
ATOM     17  C   UNL     1      14.033  17.209  45.099  0.00  0.00    +0.000 A 
ENDBRANCH   7  12
BRANCH  10  18
ATOM     18  O   UNL     1       5.496  11.390  43.599  0.00  0.00    +0.000 OA
ATOM     19  H   UNL     1       4.852  11.530  44.317  0.00  0.00    +0.000 HD
ENDBRANCH  10  18
TORSDOF 2
ENDMDL
MODEL 8
REMARK VINA RESULT:    -5.954      3.335      4.264
REMARK INTER + INTRA:          -6.792
REMARK INTER:                  -6.473
REMARK INTRA:                  -0.319
REMARK UNBOUND:                -0.315
REMARK  Name = opt47.pdb
REMARK  2 active torsions:
REMARK  status: ('A' for Active; 'I' for Inactive)
REMARK    1  A    between atoms: C_7  and  C_11
REMARK    2  A    between atoms: C_10  and  O_13
REMARK                            x       y       z     vdW  Elec       q    Type
REMARK                         _______ _______ _______ _____ _____    ______ ____
ROOT
ATOM      1  O   UNL     1       9.998  12.426  43.284  0.00  0.00    +0.000 OA
ATOM      2  C   UNL     1      10.787  13.319  43.521  0.00  0.00    +0.000 A 
ATOM      3  C   UNL     1      12.194  13.106  43.874  0.00  0.00    +0.000 A 
ATOM      4  C   UNL     1      10.437  14.760  43.521  0.00  0.00    +0.000 A 
ATOM      5  C   UNL     1      12.908  14.251  44.144  0.00  0.00    +0.000 A 
ATOM      6  C   UNL     1      12.865  11.834  43.995  0.00  0.00    +0.000 A 
ATOM      7  C   UNL     1      11.157  15.601  43.752  0.00  0.00    +0.000 A 
ATOM      8  O   UNL     1      12.230  15.459  44.067  0.00  0.00    +0.000 OA
ATOM      9  C   UNL     1      14.295  14.169  44.526  0.00  0.00    +0.000 A 
ATOM     10  C   UNL     1      14.202  11.762  44.375  0.00  0.00    +0.000 A 
ATOM     11  C   UNL     1      14.918  12.929  44.638  0.00  0.00    +0.000 A 
ENDROOT
BRANCH   7  12
ATOM     12  C   UNL     1      10.784  17.068  43.678  0.00  0.00    +0.000 A 
ATOM     13  C   UNL     1      11.739  18.078  43.921  0.00  0.00    +0.000 A 
ATOM     14  C   UNL     1       9.461  17.467  43.389  0.00  0.00    +0.000 A 
ATOM     15  C   UNL     1      11.374  19.424  43.900  0.00  0.00    +0.000 A 
ATOM     16  C   UNL     1       9.109  18.815  43.368  0.00  0.00    +0.000 A 
ATOM     17  C   UNL     1      10.061  19.793  43.630  0.00  0.00    +0.000 A 
ENDBRANCH   7  12
BRANCH  10  18
ATOM     18  O   UNL     1      14.818  10.552  44.493  0.00  0.00    +0.000 OA
ATOM     19  H   UNL     1      15.387  10.386  43.719  0.00  0.00    +0.000 HD
ENDBRANCH  10  18
TORSDOF 2
ENDMDL
MODEL 9
REMARK VINA RESULT:    -5.927      3.088      7.546
REMARK INTER + INTRA:          -6.762
REMARK INTER:                  -6.455
REMARK INTRA:                  -0.306
REMARK UNBOUND:                -0.315
REMARK  Name = opt47.pdb
REMARK  2 active torsions:
REMARK  status: ('A' for Active; 'I' for Inactive)
REMARK    1  A    between atoms: C_7  and  C_11
REMARK    2  A    between atoms: C_10  and  O_13
REMARK                            x       y       z     vdW  Elec       q    Type
REMARK                         _______ _______ _______ _____ _____    ______ ____
ROOT
ATOM      1  O   UNL     1      13.418  11.599  44.574  0.00  0.00    +0.000 OA
ATOM      2  C   UNL     1      13.631  12.796  44.578  0.00  0.00    +0.000 A 
ATOM      3  C   UNL     1      12.592  13.820  44.431  0.00  0.00    +0.000 A 
ATOM      4  C   UNL     1      14.979  13.399  44.700  0.00  0.00    +0.000 A 
ATOM      5  C   UNL     1      13.050  15.118  44.423  0.00  0.00    +0.000 A 
ATOM      6  C   UNL     1      11.178  13.590  44.263  0.00  0.00    +0.000 A 
ATOM      7  C   UNL     1      15.194  14.509  44.693  0.00  0.00    +0.000 A 
ATOM      8  O   UNL     1      14.418  15.313  44.538  0.00  0.00    +0.000 OA
ATOM      9  C   UNL     1      12.127  16.213  44.260  0.00  0.00    +0.000 A 
ATOM     10  C   UNL     1      10.293  14.652  44.096  0.00  0.00    +0.000 A 
ATOM     11  C   UNL     1      10.767  15.962  44.097  0.00  0.00    +0.000 A 
ENDROOT
BRANCH   7  12
ATOM     12  C   UNL     1      16.579  15.097  44.887  0.00  0.00    +0.000 A 
ATOM     13  C   UNL     1      16.762  16.335  45.538  0.00  0.00    +0.000 A 
ATOM     14  C   UNL     1      17.724  14.432  44.396  0.00  0.00    +0.000 A 
ATOM     15  C   UNL     1      18.035  16.890  45.667  0.00  0.00    +0.000 A 
ATOM     16  C   UNL     1      18.990  14.997  44.533  0.00  0.00    +0.000 A 
ATOM     17  C   UNL     1      19.147  16.227  45.161  0.00  0.00    +0.000 A 
ENDBRANCH   7  12
BRANCH  10  18
ATOM     18  O   UNL     1       8.961  14.415  43.930  0.00  0.00    +0.000 OA
ATOM     19  H   UNL     1       8.498  14.482  44.785  0.00  0.00    +0.000 HD
ENDBRANCH  10  18
TORSDOF 2
ENDMDL
MODEL 10
REMARK VINA RESULT:    -5.775      2.361      6.573
REMARK INTER + INTRA:          -6.597
REMARK INTER:                  -6.282
REMARK INTRA:                  -0.315
REMARK UNBOUND:                -0.315
REMARK  Name = opt47.pdb
REMARK  2 active torsions:
REMARK  status: ('A' for Active; 'I' for Inactive)
REMARK    1  A    between atoms: C_7  and  C_11
REMARK    2  A    between atoms: C_10  and  O_13
REMARK                            x       y       z     vdW  Elec       q    Type
REMARK                         _______ _______ _______ _____ _____    ______ ____
ROOT
ATOM      1  O   UNL     1      11.496  11.321  43.328  0.00  0.00    +0.000 OA
ATOM      2  C   UNL     1      11.713  12.487  43.591  0.00  0.00    +0.000 A 
ATOM      3  C   UNL     1      10.711  13.554  43.505  0.00  0.00    +0.000 A 
ATOM      4  C   UNL     1      13.035  13.013  44.009  0.00  0.00    +0.000 A 
ATOM      5  C   UNL     1      11.173  14.814  43.809  0.00  0.00    +0.000 A 
ATOM      6  C   UNL     1       9.333  13.406  43.106  0.00  0.00    +0.000 A 
ATOM      7  C   UNL     1      13.256  14.096  44.246  0.00  0.00    +0.000 A 
ATOM      8  O   UNL     1      12.513  14.939  44.145  0.00  0.00    +0.000 OA
ATOM      9  C   UNL     1      10.288  15.950  43.737  0.00  0.00    +0.000 A 
ATOM     10  C   UNL     1       8.486  14.509  43.028  0.00  0.00    +0.000 A 
ATOM     11  C   UNL     1       8.963  15.779  43.346  0.00  0.00    +0.000 A 
ENDROOT
BRANCH   7  12
ATOM     12  C   UNL     1      14.603  14.591  44.735  0.00  0.00    +0.000 A 
ATOM     13  C   UNL     1      15.547  13.704  45.296  0.00  0.00    +0.000 A 
ATOM     14  C   UNL     1      14.942  15.959  44.667  0.00  0.00    +0.000 A 
ATOM     15  C   UNL     1      16.763  14.176  45.788  0.00  0.00    +0.000 A 
ATOM     16  C   UNL     1      16.161  16.419  45.160  0.00  0.00    +0.000 A 
ATOM     17  C   UNL     1      17.069  15.532  45.726  0.00  0.00    +0.000 A 
ENDBRANCH   7  12
BRANCH  10  18
ATOM     18  O   UNL     1       7.189  14.352  42.640  0.00  0.00    +0.000 OA
ATOM     19  H   UNL     1       6.954  13.406  42.624  0.00  0.00    +0.000 HD
ENDBRANCH  10  18
TORSDOF 2
ENDMDL
MODEL 11
REMARK VINA RESULT:    -5.759      2.615      6.150
REMARK INTER + INTRA:          -6.580
REMARK INTER:                  -6.263
REMARK INTRA:                  -0.317
REMARK UNBOUND:                -0.315
REMARK  Name = opt47.pdb
REMARK  2 active torsions:
REMARK  status: ('A' for Active; 'I' for Inactive)
REMARK    1  A    between atoms: C_7  and  C_11
REMARK    2  A    between atoms: C_10  and  O_13
REMARK                            x       y       z     vdW  Elec       q    Type
REMARK                         _______ _______ _______ _____ _____    ______ ____
ROOT
ATOM      1  O   UNL     1      12.066  11.671  43.405  0.00  0.00    +0.000 OA
ATOM      2  C   UNL     1      11.610  12.766  43.669  0.00  0.00    +0.000 A 
ATOM      3  C   UNL     1      10.182  13.097  43.633  0.00  0.00    +0.000 A 
ATOM      4  C   UNL     1      12.434  13.943  44.035  0.00  0.00    +0.000 A 
ATOM      5  C   UNL     1       9.880  14.406  43.929  0.00  0.00    +0.000 A 
ATOM      6  C   UNL     1       9.103  12.203  43.291  0.00  0.00    +0.000 A 
ATOM      7  C   UNL     1      12.026  14.970  44.272  0.00  0.00    +0.000 A 
ATOM      8  O   UNL     1      10.937  15.259  44.209  0.00  0.00    +0.000 OA
ATOM      9  C   UNL     1       8.511  14.860  43.904  0.00  0.00    +0.000 A 
ATOM     10  C   UNL     1       7.785  12.650  43.258  0.00  0.00    +0.000 A 
ATOM     11  C   UNL     1       7.489  13.977  43.566  0.00  0.00    +0.000 A 
ENDROOT
BRANCH   7  12
ATOM     12  C   UNL     1      12.891  16.136  44.708  0.00  0.00    +0.000 A 
ATOM     13  C   UNL     1      14.294  16.103  44.556  0.00  0.00    +0.000 A 
ATOM     14  C   UNL     1      12.319  17.281  45.305  0.00  0.00    +0.000 A 
ATOM     15  C   UNL     1      15.084  17.159  45.006  0.00  0.00    +0.000 A 
ATOM     16  C   UNL     1      13.120  18.331  45.749  0.00  0.00    +0.000 A 
ATOM     17  C   UNL     1      14.501  18.270  45.606  0.00  0.00    +0.000 A 
ENDBRANCH   7  12
BRANCH  10  18
ATOM     18  O   UNL     1       6.778  11.794  42.924  0.00  0.00    +0.000 OA
ATOM     19  H   UNL     1       6.761  11.037  43.537  0.00  0.00    +0.000 HD
ENDBRANCH  10  18
TORSDOF 2
ENDMDL
MODEL 12
REMARK VINA RESULT:    -5.743      1.618      1.865
REMARK INTER + INTRA:          -6.562
REMARK INTER:                  -6.257
REMARK INTRA:                  -0.305
REMARK UNBOUND:                -0.315
REMARK  Name = opt47.pdb
REMARK  2 active torsions:
REMARK  status: ('A' for Active; 'I' for Inactive)
REMARK    1  A    between atoms: C_7  and  C_11
REMARK    2  A    between atoms: C_10  and  O_13
REMARK                            x       y       z     vdW  Elec       q    Type
REMARK                         _______ _______ _______ _____ _____    ______ ____
ROOT
ATOM      1  O   UNL     1      10.489  10.908  42.540  0.00  0.00    +0.000 OA
ATOM      2  C   UNL     1      10.533  12.011  43.049  0.00  0.00    +0.000 A 
ATOM      3  C   UNL     1      11.759  12.639  43.552  0.00  0.00    +0.000 A 
ATOM      4  C   UNL     1       9.348  12.873  43.268  0.00  0.00    +0.000 A 
ATOM      5  C   UNL     1      11.585  13.877  44.128  0.00  0.00    +0.000 A 
ATOM      6  C   UNL     1      13.086  12.074  43.527  0.00  0.00    +0.000 A 
ATOM      7  C   UNL     1       9.371  13.895  43.751  0.00  0.00    +0.000 A 
ATOM      8  O   UNL     1      10.294  14.380  44.183  0.00  0.00    +0.000 OA
ATOM      9  C   UNL     1      12.712  14.586  44.681  0.00  0.00    +0.000 A 
ATOM     10  C   UNL     1      14.168  12.760  44.072  0.00  0.00    +0.000 A 
ATOM     11  C   UNL     1      13.981  14.016  44.647  0.00  0.00    +0.000 A 
ENDROOT
BRANCH   7  12
ATOM     12  C   UNL     1       8.150  14.781  43.900  0.00  0.00    +0.000 A 
ATOM     13  C   UNL     1       8.250  16.186  43.804  0.00  0.00    +0.000 A 
ATOM     14  C   UNL     1       6.879  14.226  44.166  0.00  0.00    +0.000 A 
ATOM     15  C   UNL     1       7.130  16.994  43.993  0.00  0.00    +0.000 A 
ATOM     16  C   UNL     1       5.767  15.044  44.350  0.00  0.00    +0.000 A 
ATOM     17  C   UNL     1       5.891  16.426  44.270  0.00  0.00    +0.000 A 
ENDBRANCH   7  12
BRANCH  10  18
ATOM     18  O   UNL     1      15.413  12.207  44.048  0.00  0.00    +0.000 OA
ATOM     19  H   UNL     1      15.588  11.733  44.882  0.00  0.00    +0.000 HD
ENDBRANCH  10  18
TORSDOF 2
ENDMDL
MODEL 13
REMARK VINA RESULT:    -5.705      2.894      6.787
REMARK INTER + INTRA:          -6.520
REMARK INTER:                  -6.205
REMARK INTRA:                  -0.315
REMARK UNBOUND:                -0.315
REMARK  Name = opt47.pdb
REMARK  2 active torsions:
REMARK  status: ('A' for Active; 'I' for Inactive)
REMARK    1  A    between atoms: C_7  and  C_11
REMARK    2  A    between atoms: C_10  and  O_13
REMARK                            x       y       z     vdW  Elec       q    Type
REMARK                         _______ _______ _______ _____ _____    ______ ____
ROOT
ATOM      1  O   UNL     1      13.433  11.256  44.539  0.00  0.00    +0.000 OA
ATOM      2  C   UNL     1      13.354  12.430  44.235  0.00  0.00    +0.000 A 
ATOM      3  C   UNL     1      12.292  12.997  43.398  0.00  0.00    +0.000 A 
ATOM      4  C   UNL     1      14.340  13.460  44.638  0.00  0.00    +0.000 A 
ATOM      5  C   UNL     1      12.410  14.344  43.140  0.00  0.00    +0.000 A 
ATOM      6  C   UNL     1      11.187  12.280  42.811  0.00  0.00    +0.000 A 
ATOM      7  C   UNL     1      14.288  14.553  44.353  0.00  0.00    +0.000 A 
ATOM      8  O   UNL     1      13.505  15.003  43.677  0.00  0.00    +0.000 OA
ATOM      9  C   UNL     1      11.439  15.012  42.310  0.00  0.00    +0.000 A 
ATOM     10  C   UNL     1      10.259  12.929  42.001  0.00  0.00    +0.000 A 
ATOM     11  C   UNL     1      10.384  14.295  41.752  0.00  0.00    +0.000 A 
ENDROOT
BRANCH   7  12
ATOM     12  C   UNL     1      15.277  15.595  44.837  0.00  0.00    +0.000 A 
ATOM     13  C   UNL     1      16.549  15.224  45.324  0.00  0.00    +0.000 A 
ATOM     14  C   UNL     1      14.944  16.967  44.839  0.00  0.00    +0.000 A 
ATOM     15  C   UNL     1      17.432  16.185  45.814  0.00  0.00    +0.000 A 
ATOM     16  C   UNL     1      15.836  17.918  45.328  0.00  0.00    +0.000 A 
ATOM     17  C   UNL     1      17.076  17.530  45.821  0.00  0.00    +0.000 A 
ENDBRANCH   7  12
BRANCH  10  18
ATOM     18  O   UNL     1       9.226  12.234  41.447  0.00  0.00    +0.000 OA
ATOM     19  H   UNL     1       8.773  11.703  42.128  0.00  0.00    +0.000 HD
ENDBRANCH  10  18
TORSDOF 2
ENDMDL
MODEL 14
REMARK VINA RESULT:    -5.554      2.812      6.731
REMARK INTER + INTRA:          -6.356
REMARK INTER:                  -6.050
REMARK INTRA:                  -0.306
REMARK UNBOUND:                -0.315
REMARK  Name = opt47.pdb
REMARK  2 active torsions:
REMARK  status: ('A' for Active; 'I' for Inactive)
REMARK    1  A    between atoms: C_7  and  C_11
REMARK    2  A    between atoms: C_10  and  O_13
REMARK                            x       y       z     vdW  Elec       q    Type
REMARK                         _______ _______ _______ _____ _____    ______ ____
ROOT
ATOM      1  O   UNL     1      14.554  12.499  41.765  0.00  0.00    +0.000 OA
ATOM      2  C   UNL     1      14.099  13.252  42.603  0.00  0.00    +0.000 A 
ATOM      3  C   UNL     1      12.711  13.221  43.074  0.00  0.00    +0.000 A 
ATOM      4  C   UNL     1      14.872  14.337  43.252  0.00  0.00    +0.000 A 
ATOM      5  C   UNL     1      12.388  14.187  44.000  0.00  0.00    +0.000 A 
ATOM      6  C   UNL     1      11.676  12.315  42.638  0.00  0.00    +0.000 A 
ATOM      7  C   UNL     1      14.460  15.053  44.025  0.00  0.00    +0.000 A 
ATOM      8  O   UNL     1      13.386  15.076  44.370  0.00  0.00    +0.000 OA
ATOM      9  C   UNL     1      11.047  14.274  44.522  0.00  0.00    +0.000 A 
ATOM     10  C   UNL     1      10.381  12.412  43.138  0.00  0.00    +0.000 A 
ATOM     11  C   UNL     1      10.067  13.389  44.080  0.00  0.00    +0.000 A 
ENDROOT
BRANCH   7  12
ATOM     12  C   UNL     1      15.295  16.110  44.719  0.00  0.00    +0.000 A 
ATOM     13  C   UNL     1      16.660  15.892  45.004  0.00  0.00    +0.000 A 
ATOM     14  C   UNL     1      14.723  17.336  45.124  0.00  0.00    +0.000 A 
ATOM     15  C   UNL     1      17.407  16.851  45.687  0.00  0.00    +0.000 A 
ATOM     16  C   UNL     1      15.481  18.287  45.804  0.00  0.00    +0.000 A 
ATOM     17  C   UNL     1      16.819  18.045  46.092  0.00  0.00    +0.000 A 
ENDBRANCH   7  12
BRANCH  10  18
ATOM     18  O   UNL     1       9.413  11.553  42.707  0.00  0.00    +0.000 OA
ATOM     19  H   UNL     1       8.895  11.962  41.989  0.00  0.00    +0.000 HD
ENDBRANCH  10  18
TORSDOF 2
ENDMDL
MODEL 15
REMARK VINA RESULT:    -5.538      1.741      2.054
REMARK INTER + INTRA:          -6.339
REMARK INTER:                  -6.045
REMARK INTRA:                  -0.294
REMARK UNBOUND:                -0.315
REMARK  Name = opt47.pdb
REMARK  2 active torsions:
REMARK  status: ('A' for Active; 'I' for Inactive)
REMARK    1  A    between atoms: C_7  and  C_11
REMARK    2  A    between atoms: C_10  and  O_13
REMARK                            x       y       z     vdW  Elec       q    Type
REMARK                         _______ _______ _______ _____ _____    ______ ____
ROOT
ATOM      1  O   UNL     1      12.788  11.785  43.389  0.00  0.00    +0.000 OA
ATOM      2  C   UNL     1      12.043  12.709  43.649  0.00  0.00    +0.000 A 
ATOM      3  C   UNL     1      12.493  14.051  44.031  0.00  0.00    +0.000 A 
ATOM      4  C   UNL     1      10.564  12.609  43.650  0.00  0.00    +0.000 A 
ATOM      5  C   UNL     1      11.487  14.943  44.323  0.00  0.00    +0.000 A 
ATOM      6  C   UNL     1      13.860  14.493  44.159  0.00  0.00    +0.000 A 
ATOM      7  C   UNL     1       9.858  13.456  43.901  0.00  0.00    +0.000 A 
ATOM      8  O   UNL     1      10.181  14.482  44.239  0.00  0.00    +0.000 OA
ATOM      9  C   UNL     1      11.804  16.287  44.735  0.00  0.00    +0.000 A 
ATOM     10  C   UNL     1      14.160  15.790  44.567  0.00  0.00    +0.000 A 
ATOM     11  C   UNL     1      13.132  16.687  44.853  0.00  0.00    +0.000 A 
ENDROOT
BRANCH   7  12
ATOM     12  C   UNL     1       8.348  13.339  43.828  0.00  0.00    +0.000 A 
ATOM     13  C   UNL     1       7.529  13.790  44.885  0.00  0.00    +0.000 A 
ATOM     14  C   UNL     1       7.719  12.752  42.709  0.00  0.00    +0.000 A 
ATOM     15  C   UNL     1       6.144  13.632  44.830  0.00  0.00    +0.000 A 
ATOM     16  C   UNL     1       6.334  12.602  42.665  0.00  0.00    +0.000 A 
ATOM     17  C   UNL     1       5.547  13.035  43.725  0.00  0.00    +0.000 A 
ENDBRANCH   7  12
BRANCH  10  18
ATOM     18  O   UNL     1      15.458  16.188  44.691  0.00  0.00    +0.000 OA
ATOM     19  H   UNL     1      15.914  16.123  43.832  0.00  0.00    +0.000 HD
ENDBRANCH  10  18
TORSDOF 2
ENDMDL
MODEL 16
REMARK VINA RESULT:    -5.488      2.235      6.454
REMARK INTER + INTRA:          -6.285
REMARK INTER:                  -5.965
REMARK INTRA:                  -0.320
REMARK UNBOUND:                -0.315
REMARK  Name = opt47.pdb
REMARK  2 active torsions:
REMARK  status: ('A' for Active; 'I' for Inactive)
REMARK    1  A    between atoms: C_7  and  C_11
REMARK    2  A    between atoms: C_10  and  O_13
REMARK                            x       y       z     vdW  Elec       q    Type
REMARK                         _______ _______ _______ _____ _____    ______ ____
ROOT
ATOM      1  O   UNL     1       9.513  17.242  43.461  0.00  0.00    +0.000 OA
ATOM      2  C   UNL     1       9.850  16.084  43.609  0.00  0.00    +0.000 A 
ATOM      3  C   UNL     1       8.946  14.937  43.475  0.00  0.00    +0.000 A 
ATOM      4  C   UNL     1      11.220  15.657  43.979  0.00  0.00    +0.000 A 
ATOM      5  C   UNL     1       9.520  13.710  43.721  0.00  0.00    +0.000 A 
ATOM      6  C   UNL     1       7.541  14.985  43.152  0.00  0.00    +0.000 A 
ATOM      7  C   UNL     1      11.546  14.586  44.132  0.00  0.00    +0.000 A 
ATOM      8  O   UNL     1      10.860  13.692  44.076  0.00  0.00    +0.000 OA
ATOM      9  C   UNL     1       8.727  12.509  43.645  0.00  0.00    +0.000 A 
ATOM     10  C   UNL     1       6.779  13.822  43.089  0.00  0.00    +0.000 A 
ATOM     11  C   UNL     1       7.372  12.584  43.334  0.00  0.00    +0.000 A 
ENDROOT
BRANCH   7  12
ATOM     12  C   UNL     1      12.973  14.179  44.445  0.00  0.00    +0.000 A 
ATOM     13  C   UNL     1      13.972  15.146  44.685  0.00  0.00    +0.000 A 
ATOM     14  C   UNL     1      13.348  12.818  44.481  0.00  0.00    +0.000 A 
ATOM     15  C   UNL     1      15.292  14.762  44.923  0.00  0.00    +0.000 A 
ATOM     16  C   UNL     1      14.669  12.448  44.722  0.00  0.00    +0.000 A 
ATOM     17  C   UNL     1      15.642  13.417  44.936  0.00  0.00    +0.000 A 
ENDBRANCH   7  12
BRANCH  10  18
ATOM     18  O   UNL     1       5.450  13.887  42.791  0.00  0.00    +0.000 OA
ATOM     19  H   UNL     1       4.919  13.847  43.608  0.00  0.00    +0.000 HD
ENDBRANCH  10  18
TORSDOF 2
ENDMDL
MODEL 17
REMARK VINA RESULT:    -5.451      2.255      6.559
REMARK INTER + INTRA:          -6.245
REMARK INTER:                  -5.926
REMARK INTRA:                  -0.319
REMARK UNBOUND:                -0.315
REMARK  Name = opt47.pdb
REMARK  2 active torsions:
REMARK  status: ('A' for Active; 'I' for Inactive)
REMARK    1  A    between atoms: C_7  and  C_11
REMARK    2  A    between atoms: C_10  and  O_13
REMARK                            x       y       z     vdW  Elec       q    Type
REMARK                         _______ _______ _______ _____ _____    ______ ____
ROOT
ATOM      1  O   UNL     1       9.546  17.302  43.513  0.00  0.00    +0.000 OA
ATOM      2  C   UNL     1       9.884  16.140  43.623  0.00  0.00    +0.000 A 
ATOM      3  C   UNL     1       8.972  15.000  43.493  0.00  0.00    +0.000 A 
ATOM      4  C   UNL     1      11.264  15.702  43.937  0.00  0.00    +0.000 A 
ATOM      5  C   UNL     1       9.549  13.766  43.692  0.00  0.00    +0.000 A 
ATOM      6  C   UNL     1       7.556  15.059  43.219  0.00  0.00    +0.000 A 
ATOM      7  C   UNL     1      11.591  14.626  44.053  0.00  0.00    +0.000 A 
ATOM      8  O   UNL     1      10.900  13.736  44.001  0.00  0.00    +0.000 OA
ATOM      9  C   UNL     1       8.749  12.569  43.615  0.00  0.00    +0.000 A 
ATOM     10  C   UNL     1       6.789  13.899  43.156  0.00  0.00    +0.000 A 
ATOM     11  C   UNL     1       7.385  12.655  43.352  0.00  0.00    +0.000 A 
ENDROOT
BRANCH   7  12
ATOM     12  C   UNL     1      13.026  14.208  44.309  0.00  0.00    +0.000 A 
ATOM     13  C   UNL     1      13.404  12.848  44.293  0.00  0.00    +0.000 A 
ATOM     14  C   UNL     1      14.021  15.167  44.597  0.00  0.00    +0.000 A 
ATOM     15  C   UNL     1      14.716  12.471  44.579  0.00  0.00    +0.000 A 
ATOM     16  C   UNL     1      15.329  14.777  44.878  0.00  0.00    +0.000 A 
ATOM     17  C   UNL     1      15.676  13.432  44.877  0.00  0.00    +0.000 A 
ENDBRANCH   7  12
BRANCH  10  18
ATOM     18  O   UNL     1       5.451  13.975  42.904  0.00  0.00    +0.000 OA
ATOM     19  H   UNL     1       4.950  13.978  43.741  0.00  0.00    +0.000 HD
ENDBRANCH  10  18
TORSDOF 2
ENDMDL
MODEL 18
REMARK VINA RESULT:    -5.271      2.360      3.373
REMARK INTER + INTRA:          -6.049
REMARK INTER:                  -5.729
REMARK INTRA:                  -0.319
REMARK UNBOUND:                -0.315
REMARK  Name = opt47.pdb
REMARK  2 active torsions:
REMARK  status: ('A' for Active; 'I' for Inactive)
REMARK    1  A    between atoms: C_7  and  C_11
REMARK    2  A    between atoms: C_10  and  O_13
REMARK                            x       y       z     vdW  Elec       q    Type
REMARK                         _______ _______ _______ _____ _____    ______ ____
ROOT
ATOM      1  O   UNL     1      14.243  16.862  41.943  0.00  0.00    +0.000 OA
ATOM      2  C   UNL     1      13.760  16.052  42.710  0.00  0.00    +0.000 A 
ATOM      3  C   UNL     1      14.536  15.257  43.667  0.00  0.00    +0.000 A 
ATOM      4  C   UNL     1      12.316  15.724  42.771  0.00  0.00    +0.000 A 
ATOM      5  C   UNL     1      13.800  14.369  44.418  0.00  0.00    +0.000 A 
ATOM      6  C   UNL     1      15.965  15.299  43.859  0.00  0.00    +0.000 A 
ATOM      7  C   UNL     1      11.854  14.965  43.470  0.00  0.00    +0.000 A 
ATOM      8  O   UNL     1      12.435  14.312  44.184  0.00  0.00    +0.000 OA
ATOM      9  C   UNL     1      14.453  13.513  45.377  0.00  0.00    +0.000 A 
ATOM     10  C   UNL     1      16.590  14.463  44.780  0.00  0.00    +0.000 A 
ATOM     11  C   UNL     1      15.834  13.572  45.540  0.00  0.00    +0.000 A 
ENDROOT
BRANCH   7  12
ATOM     12  C   UNL     1      10.364  14.700  43.554  0.00  0.00    +0.000 A 
ATOM     13  C   UNL     1       9.445  15.441  42.780  0.00  0.00    +0.000 A 
ATOM     14  C   UNL     1       9.849  13.719  44.429  0.00  0.00    +0.000 A 
ATOM     15  C   UNL     1       8.073  15.224  42.901  0.00  0.00    +0.000 A 
ATOM     16  C   UNL     1       8.476  13.510  44.539  0.00  0.00    +0.000 A 
ATOM     17  C   UNL     1       7.588  14.264  43.782  0.00  0.00    +0.000 A 
ENDBRANCH   7  12
BRANCH  10  18
ATOM     18  O   UNL     1      17.943  14.510  44.942  0.00  0.00    +0.000 OA
ATOM     19  H   UNL     1      18.166  14.606  45.886  0.00  0.00    +0.000 HD
ENDBRANCH  10  18
TORSDOF 2
ENDMDL
