MODEL 1
REMARK VINA RESULT:    -4.829      0.000      0.000
REMARK INTER + INTRA:          -5.677
REMARK INTER:                  -5.535
REMARK INTRA:                  -0.142
REMARK UNBOUND:                -0.142
REMARK  Name = opt37.pdb
REMARK  3 active torsions:
REMARK  status: ('A' for Active; 'I' for Inactive)
REMARK    1  A    between atoms: C_2  and  C_4
REMARK    2  A    between atoms: C_4  and  C_5
REMARK    3  A    between atoms: C_8  and  O_10
REMARK                            x       y       z     vdW  Elec       q    Type
REMARK                         _______ _______ _______ _____ _____    ______ ____
ROOT
ATOM      1  C   UNL     1      12.468  13.050  43.351  0.00  0.00    +0.000 A 
ATOM      2  C   UNL     1      13.059  11.808  43.591  0.00  0.00    +0.000 A 
ATOM      3  C   UNL     1      13.087  14.209  43.826  0.00  0.00    +0.000 A 
ATOM      4  C   UNL     1      14.254  11.722  44.305  0.00  0.00    +0.000 A 
ATOM      5  C   UNL     1      14.282  14.124  44.540  0.00  0.00    +0.000 A 
ATOM      6  C   UNL     1      14.864  12.881  44.783  0.00  0.00    +0.000 A 
ENDROOT
BRANCH   4   7
ATOM      7  O   UNL     1      14.826  10.507  44.540  0.00  0.00    +0.000 OA
ATOM      8  H   UNL     1      15.535  10.373  43.883  0.00  0.00    +0.000 HD
ENDBRANCH   4   7
BRANCH   1   9
ATOM      9  C   UNL     1      11.153  13.133  42.586  0.00  0.00    +0.000 C 
BRANCH   9  11
ATOM     10  O   UNL     1       9.276  11.781  42.922  0.00  0.00    +0.000 OA
ATOM     11  C   UNL     1       9.990  12.632  43.415  0.00  0.00    +0.000 C 
ATOM     12  O   UNL     1       9.811  13.150  44.499  0.00  0.00    +0.000 OA
ENDBRANCH   9  11
ENDBRANCH   1   9
TORSDOF 3
ENDMDL
MODEL 2
REMARK VINA RESULT:    -4.767      1.212      1.497
REMARK INTER + INTRA:          -5.606
REMARK INTER:                  -5.468
REMARK INTRA:                  -0.138
REMARK UNBOUND:                -0.142
REMARK  Name = opt37.pdb
REMARK  3 active torsions:
REMARK  status: ('A' for Active; 'I' for Inactive)
REMARK    1  A    between atoms: C_2  and  C_4
REMARK    2  A    between atoms: C_4  and  C_5
REMARK    3  A    between atoms: C_8  and  O_10
REMARK                            x       y       z     vdW  Elec       q    Type
REMARK                         _______ _______ _______ _____ _____    ______ ____
ROOT
ATOM      1  C   UNL     1      12.999  13.792  44.703  0.00  0.00    +0.000 A 
ATOM      2  C   UNL     1      13.332  12.443  44.572  0.00  0.00    +0.000 A 
ATOM      3  C   UNL     1      14.013  14.753  44.703  0.00  0.00    +0.000 A 
ATOM      4  C   UNL     1      14.666  12.055  44.451  0.00  0.00    +0.000 A 
ATOM      5  C   UNL     1      15.347  14.366  44.582  0.00  0.00    +0.000 A 
ATOM      6  C   UNL     1      15.674  13.017  44.458  0.00  0.00    +0.000 A 
ENDROOT
BRANCH   4   7
ATOM      7  O   UNL     1      14.987  10.735  44.326  0.00  0.00    +0.000 OA
ATOM      8  H   UNL     1      15.849  10.590  44.758  0.00  0.00    +0.000 HD
ENDBRANCH   4   7
BRANCH   1   9
ATOM      9  C   UNL     1      11.540  14.205  44.854  0.00  0.00    +0.000 C 
BRANCH   9  11
ATOM     10  O   UNL     1       9.843  12.814  44.050  0.00  0.00    +0.000 OA
ATOM     11  C   UNL     1      10.679  13.641  43.745  0.00  0.00    +0.000 C 
ATOM     12  O   UNL     1      10.913  14.011  42.612  0.00  0.00    +0.000 OA
ENDBRANCH   9  11
ENDBRANCH   1   9
TORSDOF 3
ENDMDL
MODEL 3
REMARK VINA RESULT:    -4.542      1.950      2.171
REMARK INTER + INTRA:          -5.347
REMARK INTER:                  -5.201
REMARK INTRA:                  -0.146
REMARK UNBOUND:                -0.142
REMARK  Name = opt37.pdb
REMARK  3 active torsions:
REMARK  status: ('A' for Active; 'I' for Inactive)
REMARK    1  A    between atoms: C_2  and  C_4
REMARK    2  A    between atoms: C_4  and  C_5
REMARK    3  A    between atoms: C_8  and  O_10
REMARK                            x       y       z     vdW  Elec       q    Type
REMARK                         _______ _______ _______ _____ _____    ______ ____
ROOT
ATOM      1  C   UNL     1      12.733  13.231  43.125  0.00  0.00    +0.000 A 
ATOM      2  C   UNL     1      13.991  13.245  42.519  0.00  0.00    +0.000 A 
ATOM      3  C   UNL     1      12.641  13.311  44.516  0.00  0.00    +0.000 A 
ATOM      4  C   UNL     1      15.146  13.330  43.295  0.00  0.00    +0.000 A 
ATOM      5  C   UNL     1      13.796  13.395  45.293  0.00  0.00    +0.000 A 
ATOM      6  C   UNL     1      15.048  13.402  44.683  0.00  0.00    +0.000 A 
ENDROOT
BRANCH   4   7
ATOM      7  O   UNL     1      16.373  13.340  42.698  0.00  0.00    +0.000 OA
ATOM      8  H   UNL     1      16.716  12.427  42.692  0.00  0.00    +0.000 HD
ENDBRANCH   4   7
BRANCH   1   9
ATOM      9  C   UNL     1      11.477  13.119  42.270  0.00  0.00    +0.000 C 
BRANCH   9  11
ATOM     10  O   UNL     1      11.318  11.570  40.528  0.00  0.00    +0.000 OA
ATOM     11  C   UNL     1      11.287  11.717  41.733  0.00  0.00    +0.000 C 
ATOM     12  O   UNL     1      11.064  10.835  42.538  0.00  0.00    +0.000 OA
ENDBRANCH   9  11
ENDBRANCH   1   9
TORSDOF 3
ENDMDL
MODEL 4
REMARK VINA RESULT:    -4.520      1.955      2.345
REMARK INTER + INTRA:          -5.322
REMARK INTER:                  -5.189
REMARK INTRA:                  -0.134
REMARK UNBOUND:                -0.142
REMARK  Name = opt37.pdb
REMARK  3 active torsions:
REMARK  status: ('A' for Active; 'I' for Inactive)
REMARK    1  A    between atoms: C_2  and  C_4
REMARK    2  A    between atoms: C_4  and  C_5
REMARK    3  A    between atoms: C_8  and  O_10
REMARK                            x       y       z     vdW  Elec       q    Type
REMARK                         _______ _______ _______ _____ _____    ______ ____
ROOT
ATOM      1  C   UNL     1      13.598  13.694  44.230  0.00  0.00    +0.000 A 
ATOM      2  C   UNL     1      14.423  13.554  45.348  0.00  0.00    +0.000 A 
ATOM      3  C   UNL     1      14.175  13.884  42.972  0.00  0.00    +0.000 A 
ATOM      4  C   UNL     1      15.810  13.611  45.213  0.00  0.00    +0.000 A 
ATOM      5  C   UNL     1      15.561  13.942  42.836  0.00  0.00    +0.000 A 
ATOM      6  C   UNL     1      16.379  13.808  43.956  0.00  0.00    +0.000 A 
ENDROOT
BRANCH   4   7
ATOM      7  O   UNL     1      16.611  13.476  46.309  0.00  0.00    +0.000 OA
ATOM      8  H   UNL     1      17.445  13.951  46.136  0.00  0.00    +0.000 HD
ENDBRANCH   4   7
BRANCH   1   9
ATOM      9  C   UNL     1      12.084  13.649  44.389  0.00  0.00    +0.000 C 
BRANCH   9  11
ATOM     10  O   UNL     1      11.777  11.480  43.575  0.00  0.00    +0.000 OA
ATOM     11  C   UNL     1      11.451  12.643  43.452  0.00  0.00    +0.000 C 
ATOM     12  O   UNL     1      10.696  13.070  42.601  0.00  0.00    +0.000 OA
ENDBRANCH   9  11
ENDBRANCH   1   9
TORSDOF 3
ENDMDL
MODEL 5
REMARK VINA RESULT:    -4.486      2.416      5.070
REMARK INTER + INTRA:          -5.284
REMARK INTER:                  -5.190
REMARK INTRA:                  -0.094
REMARK UNBOUND:                -0.142
REMARK  Name = opt37.pdb
REMARK  3 active torsions:
REMARK  status: ('A' for Active; 'I' for Inactive)
REMARK    1  A    between atoms: C_2  and  C_4
REMARK    2  A    between atoms: C_4  and  C_5
REMARK    3  A    between atoms: C_8  and  O_10
REMARK                            x       y       z     vdW  Elec       q    Type
REMARK                         _______ _______ _______ _____ _____    ______ ____
ROOT
ATOM      1  C   UNL     1      14.301  14.172  44.634  0.00  0.00    +0.000 A 
ATOM      2  C   UNL     1      13.056  13.548  44.737  0.00  0.00    +0.000 A 
ATOM      3  C   UNL     1      14.367  15.565  44.562  0.00  0.00    +0.000 A 
ATOM      4  C   UNL     1      11.887  14.308  44.759  0.00  0.00    +0.000 A 
ATOM      5  C   UNL     1      13.199  16.326  44.584  0.00  0.00    +0.000 A 
ATOM      6  C   UNL     1      11.959  15.697  44.680  0.00  0.00    +0.000 A 
ENDROOT
BRANCH   4   7
ATOM      7  O   UNL     1      10.673  13.694  44.857  0.00  0.00    +0.000 OA
ATOM      8  H   UNL     1      10.814  12.796  45.212  0.00  0.00    +0.000 HD
ENDBRANCH   4   7
BRANCH   1   9
ATOM      9  C   UNL     1      15.572  13.333  44.591  0.00  0.00    +0.000 C 
BRANCH   9  11
ATOM     10  O   UNL     1      17.586  14.505  44.768  0.00  0.00    +0.000 OA
ATOM     11  C   UNL     1      16.691  13.968  45.388  0.00  0.00    +0.000 C 
ATOM     12  O   UNL     1      16.649  13.856  46.597  0.00  0.00    +0.000 OA
ENDBRANCH   9  11
ENDBRANCH   1   9
TORSDOF 3
ENDMDL
MODEL 6
REMARK VINA RESULT:    -4.424      2.311      4.685
REMARK INTER + INTRA:          -5.212
REMARK INTER:                  -5.157
REMARK INTRA:                  -0.055
REMARK UNBOUND:                -0.142
REMARK  Name = opt37.pdb
REMARK  3 active torsions:
REMARK  status: ('A' for Active; 'I' for Inactive)
REMARK    1  A    between atoms: C_2  and  C_4
REMARK    2  A    between atoms: C_4  and  C_5
REMARK    3  A    between atoms: C_8  and  O_10
REMARK                            x       y       z     vdW  Elec       q    Type
REMARK                         _______ _______ _______ _____ _____    ______ ____
ROOT
ATOM      1  C   UNL     1      14.458  13.876  44.263  0.00  0.00    +0.000 A 
ATOM      2  C   UNL     1      14.426  12.537  44.657  0.00  0.00    +0.000 A 
ATOM      3  C   UNL     1      13.591  14.317  43.261  0.00  0.00    +0.000 A 
ATOM      4  C   UNL     1      13.542  11.645  44.052  0.00  0.00    +0.000 A 
ATOM      5  C   UNL     1      12.707  13.426  42.654  0.00  0.00    +0.000 A 
ATOM      6  C   UNL     1      12.684  12.089  43.047  0.00  0.00    +0.000 A 
ENDROOT
BRANCH   4   7
ATOM      7  O   UNL     1      13.516  10.337  44.438  0.00  0.00    +0.000 OA
ATOM      8  H   UNL     1      13.598  10.305  45.410  0.00  0.00    +0.000 HD
ENDBRANCH   4   7
BRANCH   1   9
ATOM      9  C   UNL     1      15.440  14.839  44.917  0.00  0.00    +0.000 C 
BRANCH   9  11
ATOM     10  O   UNL     1      16.989  13.800  46.326  0.00  0.00    +0.000 OA
ATOM     11  C   UNL     1      16.775  14.179  45.192  0.00  0.00    +0.000 C 
ATOM     12  O   UNL     1      17.567  14.118  44.274  0.00  0.00    +0.000 OA
ENDBRANCH   9  11
ENDBRANCH   1   9
TORSDOF 3
ENDMDL
MODEL 7
REMARK VINA RESULT:    -4.417      2.434      5.141
REMARK INTER + INTRA:          -5.204
REMARK INTER:                  -5.046
REMARK INTRA:                  -0.157
REMARK UNBOUND:                -0.142
REMARK  Name = opt37.pdb
REMARK  3 active torsions:
REMARK  status: ('A' for Active; 'I' for Inactive)
REMARK    1  A    between atoms: C_2  and  C_4
REMARK    2  A    between atoms: C_4  and  C_5
REMARK    3  A    between atoms: C_8  and  O_10
REMARK                            x       y       z     vdW  Elec       q    Type
REMARK                         _______ _______ _______ _____ _____    ______ ____
ROOT
ATOM      1  C   UNL     1      14.844  14.176  44.224  0.00  0.00    +0.000 A 
ATOM      2  C   UNL     1      13.528  14.247  44.685  0.00  0.00    +0.000 A 
ATOM      3  C   UNL     1      15.181  13.230  43.253  0.00  0.00    +0.000 A 
ATOM      4  C   UNL     1      12.559  13.376  44.188  0.00  0.00    +0.000 A 
ATOM      5  C   UNL     1      14.212  12.359  42.755  0.00  0.00    +0.000 A 
ATOM      6  C   UNL     1      12.902  12.430  43.225  0.00  0.00    +0.000 A 
ENDROOT
BRANCH   4   7
ATOM      7  O   UNL     1      11.275  13.447  44.644  0.00  0.00    +0.000 OA
ATOM      8  H   UNL     1      11.231  14.150  45.320  0.00  0.00    +0.000 HD
ENDBRANCH   4   7
BRANCH   1   9
ATOM      9  C   UNL     1      15.900  15.118  44.786  0.00  0.00    +0.000 C 
BRANCH   9  11
ATOM     10  O   UNL     1      16.666  13.760  46.526  0.00  0.00    +0.000 OA
ATOM     11  C   UNL     1      16.987  14.367  45.524  0.00  0.00    +0.000 C 
ATOM     12  O   UNL     1      18.120  14.461  45.098  0.00  0.00    +0.000 OA
ENDBRANCH   9  11
ENDBRANCH   1   9
TORSDOF 3
ENDMDL
MODEL 8
REMARK VINA RESULT:    -4.416      2.751      3.855
REMARK INTER + INTRA:          -5.203
REMARK INTER:                  -5.093
REMARK INTRA:                  -0.110
REMARK UNBOUND:                -0.142
REMARK  Name = opt37.pdb
REMARK  3 active torsions:
REMARK  status: ('A' for Active; 'I' for Inactive)
REMARK    1  A    between atoms: C_2  and  C_4
REMARK    2  A    between atoms: C_4  and  C_5
REMARK    3  A    between atoms: C_8  and  O_10
REMARK                            x       y       z     vdW  Elec       q    Type
REMARK                         _______ _______ _______ _____ _____    ______ ____
ROOT
ATOM      1  C   UNL     1      15.313  13.750  44.383  0.00  0.00    +0.000 A 
ATOM      2  C   UNL     1      16.516  13.956  45.061  0.00  0.00    +0.000 A 
ATOM      3  C   UNL     1      15.287  13.836  42.989  0.00  0.00    +0.000 A 
ATOM      4  C   UNL     1      17.681  14.252  44.355  0.00  0.00    +0.000 A 
ATOM      5  C   UNL     1      16.452  14.132  42.282  0.00  0.00    +0.000 A 
ATOM      6  C   UNL     1      17.648  14.343  42.965  0.00  0.00    +0.000 A 
ENDROOT
BRANCH   4   7
ATOM      7  O   UNL     1      18.854  14.455  45.023  0.00  0.00    +0.000 OA
ATOM      8  H   UNL     1      18.944  15.411  45.196  0.00  0.00    +0.000 HD
ENDBRANCH   4   7
BRANCH   1   9
ATOM      9  C   UNL     1      14.041  13.446  45.163  0.00  0.00    +0.000 C 
BRANCH   9  11
ATOM     10  O   UNL     1      12.133  12.612  44.102  0.00  0.00    +0.000 OA
ATOM     11  C   UNL     1      13.239  12.335  44.520  0.00  0.00    +0.000 C 
ATOM     12  O   UNL     1      13.732  11.225  44.508  0.00  0.00    +0.000 OA
ENDBRANCH   9  11
ENDBRANCH   1   9
TORSDOF 3
ENDMDL
MODEL 9
REMARK VINA RESULT:    -4.300      2.724      3.957
REMARK INTER + INTRA:          -5.070
REMARK INTER:                  -4.920
REMARK INTRA:                  -0.150
REMARK UNBOUND:                -0.142
REMARK  Name = opt37.pdb
REMARK  3 active torsions:
REMARK  status: ('A' for Active; 'I' for Inactive)
REMARK    1  A    between atoms: C_2  and  C_4
REMARK    2  A    between atoms: C_4  and  C_5
REMARK    3  A    between atoms: C_8  and  O_10
REMARK                            x       y       z     vdW  Elec       q    Type
REMARK                         _______ _______ _______ _____ _____    ______ ____
ROOT
ATOM      1  C   UNL     1      15.120  13.880  44.696  0.00  0.00    +0.000 A 
ATOM      2  C   UNL     1      15.180  14.414  43.408  0.00  0.00    +0.000 A 
ATOM      3  C   UNL     1      16.261  13.897  45.501  0.00  0.00    +0.000 A 
ATOM      4  C   UNL     1      16.371  14.954  42.924  0.00  0.00    +0.000 A 
ATOM      5  C   UNL     1      17.453  14.437  45.018  0.00  0.00    +0.000 A 
ATOM      6  C   UNL     1      17.509  14.963  43.729  0.00  0.00    +0.000 A 
ENDROOT
BRANCH   4   7
ATOM      7  O   UNL     1      16.426  15.473  41.663  0.00  0.00    +0.000 OA
ATOM      8  H   UNL     1      15.617  15.206  41.189  0.00  0.00    +0.000 HD
ENDBRANCH   4   7
BRANCH   1   9
ATOM      9  C   UNL     1      13.819  13.275  45.209  0.00  0.00    +0.000 C 
BRANCH   9  11
ATOM     10  O   UNL     1      14.281  11.136  44.388  0.00  0.00    +0.000 OA
ATOM     11  C   UNL     1      13.448  12.018  44.453  0.00  0.00    +0.000 C 
ATOM     12  O   UNL     1      12.360  11.990  43.914  0.00  0.00    +0.000 OA
ENDBRANCH   9  11
ENDBRANCH   1   9
TORSDOF 3
ENDMDL
MODEL 10
REMARK VINA RESULT:    -4.252      2.857      4.049
REMARK INTER + INTRA:          -5.015
REMARK INTER:                  -4.858
REMARK INTRA:                  -0.157
REMARK UNBOUND:                -0.142
REMARK  Name = opt37.pdb
REMARK  3 active torsions:
REMARK  status: ('A' for Active; 'I' for Inactive)
REMARK    1  A    between atoms: C_2  and  C_4
REMARK    2  A    between atoms: C_4  and  C_5
REMARK    3  A    between atoms: C_8  and  O_10
REMARK                            x       y       z     vdW  Elec       q    Type
REMARK                         _______ _______ _______ _____ _____    ______ ____
ROOT
ATOM      1  C   UNL     1      14.352  14.185  44.975  0.00  0.00    +0.000 A 
ATOM      2  C   UNL     1      14.363  15.544  44.654  0.00  0.00    +0.000 A 
ATOM      3  C   UNL     1      15.523  13.580  45.438  0.00  0.00    +0.000 A 
ATOM      4  C   UNL     1      15.533  16.291  44.787  0.00  0.00    +0.000 A 
ATOM      5  C   UNL     1      16.694  14.326  45.571  0.00  0.00    +0.000 A 
ATOM      6  C   UNL     1      16.700  15.680  45.242  0.00  0.00    +0.000 A 
ENDROOT
BRANCH   4   7
ATOM      7  O   UNL     1      15.538  17.617  44.469  0.00  0.00    +0.000 OA
ATOM      8  H   UNL     1      15.569  18.128  45.300  0.00  0.00    +0.000 HD
ENDBRANCH   4   7
BRANCH   1   9
ATOM      9  C   UNL     1      13.074  13.373  44.810  0.00  0.00    +0.000 C 
BRANCH   9  11
ATOM     10  O   UNL     1      13.204  11.094  44.310  0.00  0.00    +0.000 OA
ATOM     11  C   UNL     1      13.264  12.217  43.851  0.00  0.00    +0.000 C 
ATOM     12  O   UNL     1      13.517  12.485  42.694  0.00  0.00    +0.000 OA
ENDBRANCH   9  11
ENDBRANCH   1   9
TORSDOF 3
ENDMDL
MODEL 11
REMARK VINA RESULT:    -4.241      1.954      4.535
REMARK INTER + INTRA:          -5.002
REMARK INTER:                  -4.925
REMARK INTRA:                  -0.077
REMARK UNBOUND:                -0.142
REMARK  Name = opt37.pdb
REMARK  3 active torsions:
REMARK  status: ('A' for Active; 'I' for Inactive)
REMARK    1  A    between atoms: C_2  and  C_4
REMARK    2  A    between atoms: C_4  and  C_5
REMARK    3  A    between atoms: C_8  and  O_10
REMARK                            x       y       z     vdW  Elec       q    Type
REMARK                         _______ _______ _______ _____ _____    ______ ____
ROOT
ATOM      1  C   UNL     1      13.813  14.225  44.777  0.00  0.00    +0.000 A 
ATOM      2  C   UNL     1      12.598  13.545  44.871  0.00  0.00    +0.000 A 
ATOM      3  C   UNL     1      13.812  15.609  44.580  0.00  0.00    +0.000 A 
ATOM      4  C   UNL     1      11.392  14.237  44.762  0.00  0.00    +0.000 A 
ATOM      5  C   UNL     1      12.606  16.301  44.470  0.00  0.00    +0.000 A 
ATOM      6  C   UNL     1      11.397  15.615  44.558  0.00  0.00    +0.000 A 
ENDROOT
BRANCH   4   7
ATOM      7  O   UNL     1      10.207  13.567  44.851  0.00  0.00    +0.000 OA
ATOM      8  H   UNL     1      10.198  12.873  44.166  0.00  0.00    +0.000 HD
ENDBRANCH   4   7
BRANCH   1   9
ATOM      9  C   UNL     1      15.125  13.459  44.878  0.00  0.00    +0.000 C 
BRANCH   9  11
ATOM     10  O   UNL     1      16.642  13.556  43.103  0.00  0.00    +0.000 OA
ATOM     11  C   UNL     1      15.630  13.027  43.518  0.00  0.00    +0.000 C 
ATOM     12  O   UNL     1      14.963  12.218  42.906  0.00  0.00    +0.000 OA
ENDBRANCH   9  11
ENDBRANCH   1   9
TORSDOF 3
ENDMDL
MODEL 12
REMARK VINA RESULT:    -4.211      3.601      5.481
REMARK INTER + INTRA:          -4.968
REMARK INTER:                  -4.856
REMARK INTRA:                  -0.112
REMARK UNBOUND:                -0.142
REMARK  Name = opt37.pdb
REMARK  3 active torsions:
REMARK  status: ('A' for Active; 'I' for Inactive)
REMARK    1  A    between atoms: C_2  and  C_4
REMARK    2  A    between atoms: C_4  and  C_5
REMARK    3  A    between atoms: C_8  and  O_10
REMARK                            x       y       z     vdW  Elec       q    Type
REMARK                         _______ _______ _______ _____ _____    ______ ____
ROOT
ATOM      1  C   UNL     1      14.311  14.231  44.639  0.00  0.00    +0.000 A 
ATOM      2  C   UNL     1      14.462  15.606  44.447  0.00  0.00    +0.000 A 
ATOM      3  C   UNL     1      13.039  13.708  44.884  0.00  0.00    +0.000 A 
ATOM      4  C   UNL     1      13.355  16.452  44.507  0.00  0.00    +0.000 A 
ATOM      5  C   UNL     1      11.932  14.553  44.944  0.00  0.00    +0.000 A 
ATOM      6  C   UNL     1      12.090  15.925  44.758  0.00  0.00    +0.000 A 
ENDROOT
BRANCH   4   7
ATOM      7  O   UNL     1      13.508  17.794  44.322  0.00  0.00    +0.000 OA
ATOM      8  H   UNL     1      13.158  18.021  43.440  0.00  0.00    +0.000 HD
ENDBRANCH   4   7
BRANCH   1   9
ATOM      9  C   UNL     1      15.528  13.317  44.591  0.00  0.00    +0.000 C 
BRANCH   9  11
ATOM     10  O   UNL     1      17.639  14.312  44.719  0.00  0.00    +0.000 OA
ATOM     11  C   UNL     1      16.696  13.895  45.361  0.00  0.00    +0.000 C 
ATOM     12  O   UNL     1      16.638  13.859  46.574  0.00  0.00    +0.000 OA
ENDBRANCH   9  11
ENDBRANCH   1   9
TORSDOF 3
ENDMDL
MODEL 13
REMARK VINA RESULT:    -4.199      1.583      4.298
REMARK INTER + INTRA:          -4.955
REMARK INTER:                  -4.873
REMARK INTRA:                  -0.082
REMARK UNBOUND:                -0.142
REMARK  Name = opt37.pdb
REMARK  3 active torsions:
REMARK  status: ('A' for Active; 'I' for Inactive)
REMARK    1  A    between atoms: C_2  and  C_4
REMARK    2  A    between atoms: C_4  and  C_5
REMARK    3  A    between atoms: C_8  and  O_10
REMARK                            x       y       z     vdW  Elec       q    Type
REMARK                         _______ _______ _______ _____ _____    ______ ____
ROOT
ATOM      1  C   UNL     1      12.204  12.881  43.146  0.00  0.00    +0.000 A 
ATOM      2  C   UNL     1      11.236  12.475  42.226  0.00  0.00    +0.000 A 
ATOM      3  C   UNL     1      11.816  13.602  44.278  0.00  0.00    +0.000 A 
ATOM      4  C   UNL     1       9.893  12.793  42.429  0.00  0.00    +0.000 A 
ATOM      5  C   UNL     1      10.474  13.920  44.482  0.00  0.00    +0.000 A 
ATOM      6  C   UNL     1       9.513  13.519  43.556  0.00  0.00    +0.000 A 
ENDROOT
BRANCH   4   7
ATOM      7  O   UNL     1       8.951  12.397  41.526  0.00  0.00    +0.000 OA
ATOM      8  H   UNL     1       8.097  12.322  41.991  0.00  0.00    +0.000 HD
ENDBRANCH   4   7
BRANCH   1   9
ATOM      9  C   UNL     1      13.671  12.546  42.907  0.00  0.00    +0.000 C 
BRANCH   9  11
ATOM     10  O   UNL     1      13.558  10.772  44.425  0.00  0.00    +0.000 OA
ATOM     11  C   UNL     1      14.240  11.692  44.019  0.00  0.00    +0.000 C 
ATOM     12  O   UNL     1      15.321  12.011  44.472  0.00  0.00    +0.000 OA
ENDBRANCH   9  11
ENDBRANCH   1   9
TORSDOF 3
ENDMDL
MODEL 14
REMARK VINA RESULT:    -4.198      4.080      5.574
REMARK INTER + INTRA:          -4.954
REMARK INTER:                  -4.809
REMARK INTRA:                  -0.144
REMARK UNBOUND:                -0.142
REMARK  Name = opt37.pdb
REMARK  3 active torsions:
REMARK  status: ('A' for Active; 'I' for Inactive)
REMARK    1  A    between atoms: C_2  and  C_4
REMARK    2  A    between atoms: C_4  and  C_5
REMARK    3  A    between atoms: C_8  and  O_10
REMARK                            x       y       z     vdW  Elec       q    Type
REMARK                         _______ _______ _______ _____ _____    ______ ____
ROOT
ATOM      1  C   UNL     1      16.168  14.726  43.011  0.00  0.00    +0.000 A 
ATOM      2  C   UNL     1      16.804  14.387  44.207  0.00  0.00    +0.000 A 
ATOM      3  C   UNL     1      14.795  14.506  42.877  0.00  0.00    +0.000 A 
ATOM      4  C   UNL     1      16.077  13.826  45.257  0.00  0.00    +0.000 A 
ATOM      5  C   UNL     1      14.068  13.945  43.926  0.00  0.00    +0.000 A 
ATOM      6  C   UNL     1      14.709  13.602  45.115  0.00  0.00    +0.000 A 
ENDROOT
BRANCH   4   7
ATOM      7  O   UNL     1      16.703  13.493  46.423  0.00  0.00    +0.000 OA
ATOM      8  H   UNL     1      16.146  12.844  46.892  0.00  0.00    +0.000 HD
ENDBRANCH   4   7
BRANCH   1   9
ATOM      9  C   UNL     1      16.973  15.321  41.863  0.00  0.00    +0.000 C 
BRANCH   9  11
ATOM     10  O   UNL     1      17.187  13.506  40.406  0.00  0.00    +0.000 OA
ATOM     11  C   UNL     1      17.784  14.267  41.141  0.00  0.00    +0.000 C 
ATOM     12  O   UNL     1      18.974  14.214  41.381  0.00  0.00    +0.000 OA
ENDBRANCH   9  11
ENDBRANCH   1   9
TORSDOF 3
ENDMDL
MODEL 15
REMARK VINA RESULT:    -4.113      2.060      2.519
REMARK INTER + INTRA:          -4.856
REMARK INTER:                  -4.704
REMARK INTRA:                  -0.153
REMARK UNBOUND:                -0.142
REMARK  Name = opt37.pdb
REMARK  3 active torsions:
REMARK  status: ('A' for Active; 'I' for Inactive)
REMARK    1  A    between atoms: C_2  and  C_4
REMARK    2  A    between atoms: C_4  and  C_5
REMARK    3  A    between atoms: C_8  and  O_10
REMARK                            x       y       z     vdW  Elec       q    Type
REMARK                         _______ _______ _______ _____ _____    ______ ____
ROOT
ATOM      1  C   UNL     1      13.100  14.850  44.640  0.00  0.00    +0.000 A 
ATOM      2  C   UNL     1      12.786  13.490  44.669  0.00  0.00    +0.000 A 
ATOM      3  C   UNL     1      14.440  15.245  44.613  0.00  0.00    +0.000 A 
ATOM      4  C   UNL     1      13.799  12.533  44.679  0.00  0.00    +0.000 A 
ATOM      5  C   UNL     1      15.454  14.288  44.623  0.00  0.00    +0.000 A 
ATOM      6  C   UNL     1      15.134  12.932  44.659  0.00  0.00    +0.000 A 
ENDROOT
BRANCH   4   7
ATOM      7  O   UNL     1      13.487  11.205  44.710  0.00  0.00    +0.000 OA
ATOM      8  H   UNL     1      12.557  11.118  44.992  0.00  0.00    +0.000 HD
ENDBRANCH   4   7
BRANCH   1   9
ATOM      9  C   UNL     1      11.986  15.889  44.648  0.00  0.00    +0.000 C 
BRANCH   9  11
ATOM     10  O   UNL     1       9.915  15.361  43.702  0.00  0.00    +0.000 OA
ATOM     11  C   UNL     1      11.052  15.720  43.469  0.00  0.00    +0.000 C 
ATOM     12  O   UNL     1      11.512  15.904  42.360  0.00  0.00    +0.000 OA
ENDBRANCH   9  11
ENDBRANCH   1   9
TORSDOF 3
ENDMDL
MODEL 16
REMARK VINA RESULT:    -4.104      2.180      4.447
REMARK INTER + INTRA:          -4.845
REMARK INTER:                  -4.697
REMARK INTRA:                  -0.148
REMARK UNBOUND:                -0.142
REMARK  Name = opt37.pdb
REMARK  3 active torsions:
REMARK  status: ('A' for Active; 'I' for Inactive)
REMARK    1  A    between atoms: C_2  and  C_4
REMARK    2  A    between atoms: C_4  and  C_5
REMARK    3  A    between atoms: C_8  and  O_10
REMARK                            x       y       z     vdW  Elec       q    Type
REMARK                         _______ _______ _______ _____ _____    ______ ____
ROOT
ATOM      1  C   UNL     1      12.969  13.564  43.006  0.00  0.00    +0.000 A 
ATOM      2  C   UNL     1      12.759  12.777  41.872  0.00  0.00    +0.000 A 
ATOM      3  C   UNL     1      11.939  13.714  43.938  0.00  0.00    +0.000 A 
ATOM      4  C   UNL     1      11.530  12.152  41.666  0.00  0.00    +0.000 A 
ATOM      5  C   UNL     1      10.710  13.089  43.732  0.00  0.00    +0.000 A 
ATOM      6  C   UNL     1      10.504  12.310  42.595  0.00  0.00    +0.000 A 
ENDROOT
BRANCH   4   7
ATOM      7  O   UNL     1      11.328  11.386  40.555  0.00  0.00    +0.000 OA
ATOM      8  H   UNL     1      10.642  10.724  40.762  0.00  0.00    +0.000 HD
ENDBRANCH   4   7
BRANCH   1   9
ATOM      9  C   UNL     1      14.309  14.258  43.214  0.00  0.00    +0.000 C 
BRANCH   9  11
ATOM     10  O   UNL     1      15.486  12.429  44.067  0.00  0.00    +0.000 OA
ATOM     11  C   UNL     1      15.459  13.275  43.196  0.00  0.00    +0.000 C 
ATOM     12  O   UNL     1      16.311  13.426  42.344  0.00  0.00    +0.000 OA
ENDBRANCH   9  11
ENDBRANCH   1   9
TORSDOF 3
ENDMDL
MODEL 17
REMARK VINA RESULT:    -4.078      1.974      4.372
REMARK INTER + INTRA:          -4.816
REMARK INTER:                  -4.669
REMARK INTRA:                  -0.147
REMARK UNBOUND:                -0.142
REMARK  Name = opt37.pdb
REMARK  3 active torsions:
REMARK  status: ('A' for Active; 'I' for Inactive)
REMARK    1  A    between atoms: C_2  and  C_4
REMARK    2  A    between atoms: C_4  and  C_5
REMARK    3  A    between atoms: C_8  and  O_10
REMARK                            x       y       z     vdW  Elec       q    Type
REMARK                         _______ _______ _______ _____ _____    ______ ____
ROOT
ATOM      1  C   UNL     1      13.468  12.722  44.361  0.00  0.00    +0.000 A 
ATOM      2  C   UNL     1      12.717  11.991  43.438  0.00  0.00    +0.000 A 
ATOM      3  C   UNL     1      12.867  13.777  45.052  0.00  0.00    +0.000 A 
ATOM      4  C   UNL     1      11.382  12.315  43.201  0.00  0.00    +0.000 A 
ATOM      5  C   UNL     1      11.532  14.102  44.816  0.00  0.00    +0.000 A 
ATOM      6  C   UNL     1      10.790  13.373  43.888  0.00  0.00    +0.000 A 
ENDROOT
BRANCH   4   7
ATOM      7  O   UNL     1      10.654  11.600  42.296  0.00  0.00    +0.000 OA
ATOM      8  H   UNL     1      11.268  11.236  41.631  0.00  0.00    +0.000 HD
ENDBRANCH   4   7
BRANCH   1   9
ATOM      9  C   UNL     1      14.931  12.373  44.600  0.00  0.00    +0.000 C 
BRANCH   9  11
ATOM     10  O   UNL     1      16.043  13.440  42.843  0.00  0.00    +0.000 OA
ATOM     11  C   UNL     1      15.859  13.432  44.043  0.00  0.00    +0.000 C 
ATOM     12  O   UNL     1      16.401  14.174  44.838  0.00  0.00    +0.000 OA
ENDBRANCH   9  11
ENDBRANCH   1   9
TORSDOF 3
ENDMDL
MODEL 18
REMARK VINA RESULT:    -3.968      2.109      2.791
REMARK INTER + INTRA:          -4.689
REMARK INTER:                  -4.549
REMARK INTRA:                  -0.140
REMARK UNBOUND:                -0.142
REMARK  Name = opt37.pdb
REMARK  3 active torsions:
REMARK  status: ('A' for Active; 'I' for Inactive)
REMARK    1  A    between atoms: C_2  and  C_4
REMARK    2  A    between atoms: C_4  and  C_5
REMARK    3  A    between atoms: C_8  and  O_10
REMARK                            x       y       z     vdW  Elec       q    Type
REMARK                         _______ _______ _______ _____ _____    ______ ____
ROOT
ATOM      1  C   UNL     1      12.502  13.299  44.094  0.00  0.00    +0.000 A 
ATOM      2  C   UNL     1      12.726  14.667  44.267  0.00  0.00    +0.000 A 
ATOM      3  C   UNL     1      13.552  12.400  44.300  0.00  0.00    +0.000 A 
ATOM      4  C   UNL     1      13.987  15.133  44.636  0.00  0.00    +0.000 A 
ATOM      5  C   UNL     1      14.813  12.866  44.669  0.00  0.00    +0.000 A 
ATOM      6  C   UNL     1      15.032  14.233  44.834  0.00  0.00    +0.000 A 
ENDROOT
BRANCH   4   7
ATOM      7  O   UNL     1      14.201  16.470  44.802  0.00  0.00    +0.000 OA
ATOM      8  H   UNL     1      15.102  16.675  44.487  0.00  0.00    +0.000 HD
ENDBRANCH   4   7
BRANCH   1   9
ATOM      9  C   UNL     1      11.126  12.800  43.673  0.00  0.00    +0.000 C 
BRANCH   9  11
ATOM     10  O   UNL     1      10.836  10.820  42.465  0.00  0.00    +0.000 OA
ATOM     11  C   UNL     1      11.192  11.980  42.402  0.00  0.00    +0.000 C 
ATOM     12  O   UNL     1      11.644  12.518  41.412  0.00  0.00    +0.000 OA
ENDBRANCH   9  11
ENDBRANCH   1   9
TORSDOF 3
ENDMDL
MODEL 19
REMARK VINA RESULT:    -3.953      2.781      4.936
REMARK INTER + INTRA:          -4.672
REMARK INTER:                  -4.516
REMARK INTRA:                  -0.156
REMARK UNBOUND:                -0.142
REMARK  Name = opt37.pdb
REMARK  3 active torsions:
REMARK  status: ('A' for Active; 'I' for Inactive)
REMARK    1  A    between atoms: C_2  and  C_4
REMARK    2  A    between atoms: C_4  and  C_5
REMARK    3  A    between atoms: C_8  and  O_10
REMARK                            x       y       z     vdW  Elec       q    Type
REMARK                         _______ _______ _______ _____ _____    ______ ____
ROOT
ATOM      1  C   UNL     1      15.113  14.627  44.509  0.00  0.00    +0.000 A 
ATOM      2  C   UNL     1      15.014  13.240  44.639  0.00  0.00    +0.000 A 
ATOM      3  C   UNL     1      13.950  15.401  44.513  0.00  0.00    +0.000 A 
ATOM      4  C   UNL     1      13.766  12.631  44.764  0.00  0.00    +0.000 A 
ATOM      5  C   UNL     1      12.702  14.793  44.639  0.00  0.00    +0.000 A 
ATOM      6  C   UNL     1      12.609  13.408  44.761  0.00  0.00    +0.000 A 
ENDROOT
BRANCH   4   7
ATOM      7  O   UNL     1      13.675  11.276  44.888  0.00  0.00    +0.000 OA
ATOM      8  H   UNL     1      13.834  11.044  45.823  0.00  0.00    +0.000 HD
ENDBRANCH   4   7
BRANCH   1   9
ATOM      9  C   UNL     1      16.479  15.282  44.353  0.00  0.00    +0.000 C 
BRANCH   9  11
ATOM     10  O   UNL     1      18.253  14.318  43.177  0.00  0.00    +0.000 OA
ATOM     11  C   UNL     1      17.166  14.850  43.076  0.00  0.00    +0.000 C 
ATOM     12  O   UNL     1      16.612  15.110  42.027  0.00  0.00    +0.000 OA
ENDBRANCH   9  11
ENDBRANCH   1   9
TORSDOF 3
ENDMDL
MODEL 20
REMARK VINA RESULT:    -3.880      2.871      4.380
REMARK INTER + INTRA:          -4.589
REMARK INTER:                  -4.439
REMARK INTRA:                  -0.150
REMARK UNBOUND:                -0.142
REMARK  Name = opt37.pdb
REMARK  3 active torsions:
REMARK  status: ('A' for Active; 'I' for Inactive)
REMARK    1  A    between atoms: C_2  and  C_4
REMARK    2  A    between atoms: C_4  and  C_5
REMARK    3  A    between atoms: C_8  and  O_10
REMARK                            x       y       z     vdW  Elec       q    Type
REMARK                         _______ _______ _______ _____ _____    ______ ____
ROOT
ATOM      1  C   UNL     1      13.294  14.457  44.836  0.00  0.00    +0.000 A 
ATOM      2  C   UNL     1      14.381  15.329  44.756  0.00  0.00    +0.000 A 
ATOM      3  C   UNL     1      11.996  14.968  44.746  0.00  0.00    +0.000 A 
ATOM      4  C   UNL     1      14.176  16.699  44.596  0.00  0.00    +0.000 A 
ATOM      5  C   UNL     1      11.791  16.338  44.586  0.00  0.00    +0.000 A 
ATOM      6  C   UNL     1      12.880  17.204  44.514  0.00  0.00    +0.000 A 
ENDROOT
BRANCH   4   7
ATOM      7  O   UNL     1      15.242  17.547  44.522  0.00  0.00    +0.000 OA
ATOM      8  H   UNL     1      15.345  17.825  43.593  0.00  0.00    +0.000 HD
ENDBRANCH   4   7
BRANCH   1   9
ATOM      9  C   UNL     1      13.526  12.965  45.029  0.00  0.00    +0.000 C 
BRANCH   9  11
ATOM     10  O   UNL     1      15.201  11.960  43.745  0.00  0.00    +0.000 OA
ATOM     11  C   UNL     1      14.037  12.308  43.765  0.00  0.00    +0.000 C 
ATOM     12  O   UNL     1      13.266  12.217  42.831  0.00  0.00    +0.000 OA
ENDBRANCH   9  11
ENDBRANCH   1   9
TORSDOF 3
ENDMDL
