MODEL 1
REMARK VINA RESULT:    -6.576      0.000      0.000
REMARK INTER + INTRA:          -9.190
REMARK INTER:                  -8.690
REMARK INTRA:                  -0.500
REMARK UNBOUND:                -0.500
REMARK  Name = opt66.pdb
REMARK  7 active torsions:
REMARK  status: ('A' for Active; 'I' for Inactive)
REMARK    1  A    between atoms: C_2  and  O_3
REMARK    2  A    between atoms: C_2  and  C_4
REMARK    3  A    between atoms: O_3  and  C_5
REMARK    4  A    between atoms: C_4  and  C_6
REMARK    5  A    between atoms: C_4  and  C_7
REMARK    6  A    between atoms: C_7  and  O_12
REMARK    7  A    between atoms: N_17  and  C_21
REMARK                            x       y       z     vdW  Elec       q    Type
REMARK                         _______ _______ _______ _____ _____    ______ ____
ROOT
ATOM      1  O   UNL     1      12.956  14.555  42.914  0.00  0.00    +0.000 OA
ATOM      2  C   UNL     1      12.864  13.385  43.238  0.00  0.00    +0.000 C 
ENDROOT
BRANCH   2   3
ATOM      3  C   UNL     1      14.071  12.474  43.411  0.00  0.00    +0.000 C 
BRANCH   3   4
ATOM      4  C   UNL     1      15.261  13.258  43.957  0.00  0.00    +0.000 A 
ATOM      5  C   UNL     1      15.362  13.546  45.323  0.00  0.00    +0.000 A 
ATOM      6  C   UNL     1      16.281  13.673  43.097  0.00  0.00    +0.000 A 
ATOM      7  C   UNL     1      16.462  14.245  45.817  0.00  0.00    +0.000 A 
ATOM      8  C   UNL     1      17.382  14.370  43.594  0.00  0.00    +0.000 A 
ATOM      9  C   UNL     1      17.472  14.656  44.953  0.00  0.00    +0.000 A 
ENDBRANCH   3   4
BRANCH   3  10
ATOM     10  C   UNL     1      13.758  11.263  44.323  0.00  0.00    +0.000 C 
BRANCH  10  11
ATOM     11  O   UNL     1      14.875  10.373  44.412  0.00  0.00    +0.000 OA
ATOM     12  H   UNL     1      15.633  10.867  44.776  0.00  0.00    +0.000 HD
ENDBRANCH  10  11
ENDBRANCH   3  10
ENDBRANCH   2   3
BRANCH   2  13
ATOM     13  O   UNL     1      11.697  12.763  43.535  0.00  0.00    +0.000 OA
BRANCH  13  14
ATOM     14  C   UNL     1      10.445  13.391  43.151  0.00  0.00    +0.000 C 
ATOM     15  C   UNL     1       9.786  12.628  41.968  0.00  0.00    +0.000 C 
ATOM     16  C   UNL     1       9.498  13.448  44.377  0.00  0.00    +0.000 C 
ATOM     17  C   UNL     1       8.306  13.075  41.764  0.00  0.00    +0.000 C 
ATOM     18  C   UNL     1       8.048  13.830  43.950  0.00  0.00    +0.000 C 
ATOM     19  N   UNL     1       7.511  12.848  42.987  0.00  0.00    +0.000 NA
ATOM     20  C   UNL     1       8.202  14.612  41.632  0.00  0.00    +0.000 C 
ATOM     21  C   UNL     1       8.035  15.115  43.089  0.00  0.00    +0.000 C 
ATOM     22  C   UNL     1       7.332  11.453  43.450  0.00  0.00    +0.000 C 
ENDBRANCH  13  14
ENDBRANCH   2  13
TORSDOF 6
ENDMDL
MODEL 2
REMARK VINA RESULT:    -6.507      2.238      2.675
REMARK INTER + INTRA:          -9.100
REMARK INTER:                  -7.796
REMARK INTRA:                  -1.304
REMARK UNBOUND:                -0.500
REMARK  Name = opt66.pdb
REMARK  7 active torsions:
REMARK  status: ('A' for Active; 'I' for Inactive)
REMARK    1  A    between atoms: C_2  and  O_3
REMARK    2  A    between atoms: C_2  and  C_4
REMARK    3  A    between atoms: O_3  and  C_5
REMARK    4  A    between atoms: C_4  and  C_6
REMARK    5  A    between atoms: C_4  and  C_7
REMARK    6  A    between atoms: C_7  and  O_12
REMARK    7  A    between atoms: N_17  and  C_21
REMARK                            x       y       z     vdW  Elec       q    Type
REMARK                         _______ _______ _______ _____ _____    ______ ____
ROOT
ATOM      1  O   UNL     1      13.427  13.054  45.622  0.00  0.00    +0.000 OA
ATOM      2  C   UNL     1      12.999  13.290  44.506  0.00  0.00    +0.000 C 
ENDROOT
BRANCH   2   3
ATOM      3  C   UNL     1      13.600  14.350  43.594  0.00  0.00    +0.000 C 
BRANCH   3   4
ATOM      4  C   UNL     1      13.700  15.688  44.321  0.00  0.00    +0.000 A 
ATOM      5  C   UNL     1      14.946  16.275  44.570  0.00  0.00    +0.000 A 
ATOM      6  C   UNL     1      12.540  16.358  44.720  0.00  0.00    +0.000 A 
ATOM      7  C   UNL     1      15.029  17.507  45.215  0.00  0.00    +0.000 A 
ATOM      8  C   UNL     1      12.625  17.592  45.363  0.00  0.00    +0.000 A 
ATOM      9  C   UNL     1      13.868  18.166  45.612  0.00  0.00    +0.000 A 
ENDBRANCH   3   4
BRANCH   3  10
ATOM     10  C   UNL     1      14.984  13.926  43.046  0.00  0.00    +0.000 C 
BRANCH  10  11
ATOM     11  O   UNL     1      15.225  12.531  43.256  0.00  0.00    +0.000 OA
ATOM     12  H   UNL     1      15.927  12.439  43.926  0.00  0.00    +0.000 HD
ENDBRANCH  10  11
ENDBRANCH   3  10
ENDBRANCH   2   3
BRANCH   2  13
ATOM     13  O   UNL     1      11.982  12.614  43.919  0.00  0.00    +0.000 OA
BRANCH  13  14
ATOM     14  C   UNL     1      10.868  13.360  43.358  0.00  0.00    +0.000 C 
ATOM     15  C   UNL     1      10.204  12.570  42.198  0.00  0.00    +0.000 C 
ATOM     16  C   UNL     1       9.844  13.679  44.477  0.00  0.00    +0.000 C 
ATOM     17  C   UNL     1       8.826  13.188  41.811  0.00  0.00    +0.000 C 
ATOM     18  C   UNL     1       8.504  14.205  43.879  0.00  0.00    +0.000 C 
ATOM     19  N   UNL     1       7.910  13.205  42.969  0.00  0.00    +0.000 NA
ATOM     20  C   UNL     1       8.956  14.701  41.522  0.00  0.00    +0.000 C 
ATOM     21  C   UNL     1       8.747  15.379  42.901  0.00  0.00    +0.000 C 
ATOM     22  C   UNL     1       7.494  11.907  43.544  0.00  0.00    +0.000 C 
ENDBRANCH  13  14
ENDBRANCH   2  13
TORSDOF 6
ENDMDL
MODEL 3
REMARK VINA RESULT:    -6.274      1.743      2.621
REMARK INTER + INTRA:          -8.792
REMARK INTER:                  -7.903
REMARK INTRA:                  -0.889
REMARK UNBOUND:                -0.500
REMARK  Name = opt66.pdb
REMARK  7 active torsions:
REMARK  status: ('A' for Active; 'I' for Inactive)
REMARK    1  A    between atoms: C_2  and  O_3
REMARK    2  A    between atoms: C_2  and  C_4
REMARK    3  A    between atoms: O_3  and  C_5
REMARK    4  A    between atoms: C_4  and  C_6
REMARK    5  A    between atoms: C_4  and  C_7
REMARK    6  A    between atoms: C_7  and  O_12
REMARK    7  A    between atoms: N_17  and  C_21
REMARK                            x       y       z     vdW  Elec       q    Type
REMARK                         _______ _______ _______ _____ _____    ______ ____
ROOT
ATOM      1  O   UNL     1      12.220  11.000  43.641  0.00  0.00    +0.000 OA
ATOM      2  C   UNL     1      12.577  12.072  43.184  0.00  0.00    +0.000 C 
ENDROOT
BRANCH   2   3
ATOM      3  C   UNL     1      13.999  12.597  43.313  0.00  0.00    +0.000 C 
BRANCH   3   4
ATOM      4  C   UNL     1      13.999  14.120  43.423  0.00  0.00    +0.000 A 
ATOM      5  C   UNL     1      13.488  14.755  44.561  0.00  0.00    +0.000 A 
ATOM      6  C   UNL     1      14.542  14.897  42.396  0.00  0.00    +0.000 A 
ATOM      7  C   UNL     1      13.511  16.145  44.663  0.00  0.00    +0.000 A 
ATOM      8  C   UNL     1      14.566  16.287  42.501  0.00  0.00    +0.000 A 
ATOM      9  C   UNL     1      14.051  16.911  43.633  0.00  0.00    +0.000 A 
ENDBRANCH   3   4
BRANCH   3  10
ATOM     10  C   UNL     1      14.744  11.968  44.516  0.00  0.00    +0.000 C 
BRANCH  10  11
ATOM     11  O   UNL     1      14.940  10.563  44.331  0.00  0.00    +0.000 OA
ATOM     12  H   UNL     1      15.479  10.431  43.529  0.00  0.00    +0.000 HD
ENDBRANCH  10  11
ENDBRANCH   3  10
ENDBRANCH   2   3
BRANCH   2  13
ATOM     13  O   UNL     1      11.780  12.900  42.466  0.00  0.00    +0.000 OA
BRANCH  13  14
ATOM     14  C   UNL     1      10.346  12.881  42.702  0.00  0.00    +0.000 C 
ATOM     15  C   UNL     1      10.012  13.434  44.115  0.00  0.00    +0.000 C 
ATOM     16  C   UNL     1       9.630  13.699  41.597  0.00  0.00    +0.000 C 
ATOM     17  C   UNL     1       8.489  13.732  44.259  0.00  0.00    +0.000 C 
ATOM     18  C   UNL     1       8.140  13.962  41.970  0.00  0.00    +0.000 C 
ATOM     19  N   UNL     1       8.042  14.705  43.242  0.00  0.00    +0.000 NA
ATOM     20  C   UNL     1       7.642  12.498  43.871  0.00  0.00    +0.000 C 
ATOM     21  C   UNL     1       7.413  12.649  42.345  0.00  0.00    +0.000 C 
ATOM     22  C   UNL     1       8.610  16.070  43.291  0.00  0.00    +0.000 C 
ENDBRANCH  13  14
ENDBRANCH   2  13
TORSDOF 6
ENDMDL
MODEL 4
REMARK VINA RESULT:    -6.143      3.292      7.041
REMARK INTER + INTRA:          -8.619
REMARK INTER:                  -7.590
REMARK INTRA:                  -1.029
REMARK UNBOUND:                -0.500
REMARK  Name = opt66.pdb
REMARK  7 active torsions:
REMARK  status: ('A' for Active; 'I' for Inactive)
REMARK    1  A    between atoms: C_2  and  O_3
REMARK    2  A    between atoms: C_2  and  C_4
REMARK    3  A    between atoms: O_3  and  C_5
REMARK    4  A    between atoms: C_4  and  C_6
REMARK    5  A    between atoms: C_4  and  C_7
REMARK    6  A    between atoms: C_7  and  O_12
REMARK    7  A    between atoms: N_17  and  C_21
REMARK                            x       y       z     vdW  Elec       q    Type
REMARK                         _______ _______ _______ _____ _____    ______ ____
ROOT
ATOM      1  O   UNL     1      15.016  12.485  42.163  0.00  0.00    +0.000 OA
ATOM      2  C   UNL     1      15.195  12.831  43.317  0.00  0.00    +0.000 C 
ENDROOT
BRANCH   2   3
ATOM      3  C   UNL     1      14.155  12.640  44.412  0.00  0.00    +0.000 C 
BRANCH   3   4
ATOM      4  C   UNL     1      12.962  13.563  44.185  0.00  0.00    +0.000 A 
ATOM      5  C   UNL     1      11.824  13.109  43.507  0.00  0.00    +0.000 A 
ATOM      6  C   UNL     1      12.982  14.870  44.681  0.00  0.00    +0.000 A 
ATOM      7  C   UNL     1      10.729  13.951  43.323  0.00  0.00    +0.000 A 
ATOM      8  C   UNL     1      11.884  15.710  44.497  0.00  0.00    +0.000 A 
ATOM      9  C   UNL     1      10.759  15.252  43.817  0.00  0.00    +0.000 A 
ENDBRANCH   3   4
BRANCH   3  10
ATOM     10  C   UNL     1      13.688  11.168  44.517  0.00  0.00    +0.000 C 
BRANCH  10  11
ATOM     11  O   UNL     1      14.799  10.265  44.512  0.00  0.00    +0.000 OA
ATOM     12  H   UNL     1      15.398  10.512  45.241  0.00  0.00    +0.000 HD
ENDBRANCH  10  11
ENDBRANCH   3  10
ENDBRANCH   2   3
BRANCH   2  13
ATOM     13  O   UNL     1      16.345  13.375  43.782  0.00  0.00    +0.000 OA
BRANCH  13  14
ATOM     14  C   UNL     1      16.350  14.765  44.205  0.00  0.00    +0.000 C 
ATOM     15  C   UNL     1      17.204  14.947  45.490  0.00  0.00    +0.000 C 
ATOM     16  C   UNL     1      16.877  15.655  43.052  0.00  0.00    +0.000 C 
ATOM     17  C   UNL     1      17.493  16.454  45.767  0.00  0.00    +0.000 C 
ATOM     18  C   UNL     1      17.185  17.099  43.552  0.00  0.00    +0.000 C 
ATOM     19  N   UNL     1      18.197  17.075  44.627  0.00  0.00    +0.000 NA
ATOM     20  C   UNL     1      16.184  17.278  45.781  0.00  0.00    +0.000 C 
ATOM     21  C   UNL     1      15.977  17.704  44.305  0.00  0.00    +0.000 C 
ATOM     22  C   UNL     1      19.550  16.577  44.292  0.00  0.00    +0.000 C 
ENDBRANCH  13  14
ENDBRANCH   2  13
TORSDOF 6
ENDMDL
MODEL 5
REMARK VINA RESULT:    -6.099      3.452      7.479
REMARK INTER + INTRA:          -8.561
REMARK INTER:                  -7.640
REMARK INTRA:                  -0.921
REMARK UNBOUND:                -0.500
REMARK  Name = opt66.pdb
REMARK  7 active torsions:
REMARK  status: ('A' for Active; 'I' for Inactive)
REMARK    1  A    between atoms: C_2  and  O_3
REMARK    2  A    between atoms: C_2  and  C_4
REMARK    3  A    between atoms: O_3  and  C_5
REMARK    4  A    between atoms: C_4  and  C_6
REMARK    5  A    between atoms: C_4  and  C_7
REMARK    6  A    between atoms: C_7  and  O_12
REMARK    7  A    between atoms: N_17  and  C_21
REMARK                            x       y       z     vdW  Elec       q    Type
REMARK                         _______ _______ _______ _____ _____    ______ ____
ROOT
ATOM      1  O   UNL     1      15.402  12.782  42.536  0.00  0.00    +0.000 OA
ATOM      2  C   UNL     1      15.347  13.053  43.722  0.00  0.00    +0.000 C 
ENDROOT
BRANCH   2   3
ATOM      3  C   UNL     1      14.161  12.689  44.603  0.00  0.00    +0.000 C 
BRANCH   3   4
ATOM      4  C   UNL     1      13.006  13.661  44.374  0.00  0.00    +0.000 A 
ATOM      5  C   UNL     1      13.132  15.015  44.706  0.00  0.00    +0.000 A 
ATOM      6  C   UNL     1      11.815  13.210  43.797  0.00  0.00    +0.000 A 
ATOM      7  C   UNL     1      12.081  15.899  44.474  0.00  0.00    +0.000 A 
ATOM      8  C   UNL     1      10.766  14.098  43.563  0.00  0.00    +0.000 A 
ATOM      9  C   UNL     1      10.898  15.441  43.902  0.00  0.00    +0.000 A 
ENDBRANCH   3   4
BRANCH   3  10
ATOM     10  C   UNL     1      13.694  11.231  44.376  0.00  0.00    +0.000 C 
BRANCH  10  11
ATOM     11  O   UNL     1      14.770  10.304  44.556  0.00  0.00    +0.000 OA
ATOM     12  H   UNL     1      14.669   9.586  43.903  0.00  0.00    +0.000 HD
ENDBRANCH  10  11
ENDBRANCH   3  10
ENDBRANCH   2   3
BRANCH   2  13
ATOM     13  O   UNL     1      16.343  13.656  44.415  0.00  0.00    +0.000 OA
BRANCH  13  14
ATOM     14  C   UNL     1      17.225  14.582  43.725  0.00  0.00    +0.000 C 
ATOM     15  C   UNL     1      16.604  16.005  43.681  0.00  0.00    +0.000 C 
ATOM     16  C   UNL     1      18.609  14.596  44.422  0.00  0.00    +0.000 C 
ATOM     17  C   UNL     1      17.660  17.068  43.250  0.00  0.00    +0.000 C 
ATOM     18  C   UNL     1      19.482  15.782  43.914  0.00  0.00    +0.000 C 
ATOM     19  N   UNL     1      18.813  17.073  44.172  0.00  0.00    +0.000 NA
ATOM     20  C   UNL     1      18.350  16.662  41.927  0.00  0.00    +0.000 C 
ATOM     21  C   UNL     1      19.561  15.802  42.369  0.00  0.00    +0.000 C 
ATOM     22  C   UNL     1      18.573  17.457  45.581  0.00  0.00    +0.000 C 
ENDBRANCH  13  14
ENDBRANCH   2  13
TORSDOF 6
ENDMDL
MODEL 6
REMARK VINA RESULT:    -6.068      1.276      1.472
REMARK INTER + INTRA:          -8.520
REMARK INTER:                  -7.609
REMARK INTRA:                  -0.911
REMARK UNBOUND:                -0.500
REMARK  Name = opt66.pdb
REMARK  7 active torsions:
REMARK  status: ('A' for Active; 'I' for Inactive)
REMARK    1  A    between atoms: C_2  and  O_3
REMARK    2  A    between atoms: C_2  and  C_4
REMARK    3  A    between atoms: O_3  and  C_5
REMARK    4  A    between atoms: C_4  and  C_6
REMARK    5  A    between atoms: C_4  and  C_7
REMARK    6  A    between atoms: C_7  and  O_12
REMARK    7  A    between atoms: N_17  and  C_21
REMARK                            x       y       z     vdW  Elec       q    Type
REMARK                         _______ _______ _______ _____ _____    ______ ____
ROOT
ATOM      1  O   UNL     1      12.341  13.637  45.584  0.00  0.00    +0.000 OA
ATOM      2  C   UNL     1      12.488  13.276  44.430  0.00  0.00    +0.000 C 
ENDROOT
BRANCH   2   3
ATOM      3  C   UNL     1      13.854  13.104  43.781  0.00  0.00    +0.000 C 
BRANCH   3   4
ATOM      4  C   UNL     1      14.864  14.070  44.394  0.00  0.00    +0.000 A 
ATOM      5  C   UNL     1      15.858  13.609  45.265  0.00  0.00    +0.000 A 
ATOM      6  C   UNL     1      14.824  15.428  44.065  0.00  0.00    +0.000 A 
ATOM      7  C   UNL     1      16.789  14.495  45.804  0.00  0.00    +0.000 A 
ATOM      8  C   UNL     1      15.758  16.312  44.603  0.00  0.00    +0.000 A 
ATOM      9  C   UNL     1      16.740  15.846  45.473  0.00  0.00    +0.000 A 
ENDBRANCH   3   4
BRANCH   3  10
ATOM     10  C   UNL     1      14.367  11.647  43.886  0.00  0.00    +0.000 C 
BRANCH  10  11
ATOM     11  O   UNL     1      13.499  10.845  44.694  0.00  0.00    +0.000 OA
ATOM     12  H   UNL     1      12.596  11.207  44.626  0.00  0.00    +0.000 HD
ENDBRANCH  10  11
ENDBRANCH   3  10
ENDBRANCH   2   3
BRANCH   2  13
ATOM     13  O   UNL     1      11.472  12.935  43.601  0.00  0.00    +0.000 OA
BRANCH  13  14
ATOM     14  C   UNL     1      10.416  13.898  43.342  0.00  0.00    +0.000 C 
ATOM     15  C   UNL     1      10.050  13.924  41.833  0.00  0.00    +0.000 C 
ATOM     16  C   UNL     1       9.180  13.556  44.212  0.00  0.00    +0.000 C 
ATOM     17  C   UNL     1       8.715  14.692  41.589  0.00  0.00    +0.000 C 
ATOM     18  C   UNL     1       7.929  14.366  43.755  0.00  0.00    +0.000 C 
ATOM     19  N   UNL     1       7.606  14.076  42.344  0.00  0.00    +0.000 NA
ATOM     20  C   UNL     1       8.756  16.097  42.231  0.00  0.00    +0.000 C 
ATOM     21  C   UNL     1       8.237  15.880  43.675  0.00  0.00    +0.000 C 
ATOM     22  C   UNL     1       7.213  12.692  41.995  0.00  0.00    +0.000 C 
ENDBRANCH  13  14
ENDBRANCH   2  13
TORSDOF 6
ENDMDL
MODEL 7
REMARK VINA RESULT:    -6.026      2.381      3.363
REMARK INTER + INTRA:          -8.463
REMARK INTER:                  -7.169
REMARK INTRA:                  -1.295
REMARK UNBOUND:                -0.500
REMARK  Name = opt66.pdb
REMARK  7 active torsions:
REMARK  status: ('A' for Active; 'I' for Inactive)
REMARK    1  A    between atoms: C_2  and  O_3
REMARK    2  A    between atoms: C_2  and  C_4
REMARK    3  A    between atoms: O_3  and  C_5
REMARK    4  A    between atoms: C_4  and  C_6
REMARK    5  A    between atoms: C_4  and  C_7
REMARK    6  A    between atoms: C_7  and  O_12
REMARK    7  A    between atoms: N_17  and  C_21
REMARK                            x       y       z     vdW  Elec       q    Type
REMARK                         _______ _______ _______ _____ _____    ______ ____
ROOT
ATOM      1  O   UNL     1      11.376  11.398  41.760  0.00  0.00    +0.000 OA
ATOM      2  C   UNL     1      11.421  12.136  42.727  0.00  0.00    +0.000 C 
ENDROOT
BRANCH   2   3
ATOM      3  C   UNL     1      12.670  12.912  43.122  0.00  0.00    +0.000 C 
BRANCH   3   4
ATOM      4  C   UNL     1      12.342  14.391  43.311  0.00  0.00    +0.000 A 
ATOM      5  C   UNL     1      12.009  15.196  42.215  0.00  0.00    +0.000 A 
ATOM      6  C   UNL     1      12.342  14.951  44.591  0.00  0.00    +0.000 A 
ATOM      7  C   UNL     1      11.691  16.540  42.398  0.00  0.00    +0.000 A 
ATOM      8  C   UNL     1      12.021  16.296  44.773  0.00  0.00    +0.000 A 
ATOM      9  C   UNL     1      11.696  17.090  43.677  0.00  0.00    +0.000 A 
ENDBRANCH   3   4
BRANCH   3  10
ATOM     10  C   UNL     1      13.332  12.337  44.397  0.00  0.00    +0.000 C 
BRANCH  10  11
ATOM     11  O   UNL     1      13.095  10.931  44.521  0.00  0.00    +0.000 OA
ATOM     12  H   UNL     1      13.595  10.603  45.291  0.00  0.00    +0.000 HD
ENDBRANCH  10  11
ENDBRANCH   3  10
ENDBRANCH   2   3
BRANCH   2  13
ATOM     13  O   UNL     1      10.368  12.400  43.537  0.00  0.00    +0.000 OA
BRANCH  13  14
ATOM     14  C   UNL     1       9.071  12.675  42.943  0.00  0.00    +0.000 C 
ATOM     15  C   UNL     1       8.006  11.662  43.449  0.00  0.00    +0.000 C 
ATOM     16  C   UNL     1       8.654  14.132  43.263  0.00  0.00    +0.000 C 
ATOM     17  C   UNL     1       6.564  12.134  43.092  0.00  0.00    +0.000 C 
ATOM     18  C   UNL     1       7.155  14.378  42.913  0.00  0.00    +0.000 C 
ATOM     19  N   UNL     1       6.283  13.462  43.675  0.00  0.00    +0.000 NA
ATOM     20  C   UNL     1       6.439  12.448  41.583  0.00  0.00    +0.000 C 
ATOM     21  C   UNL     1       6.837  13.941  41.463  0.00  0.00    +0.000 C 
ATOM     22  C   UNL     1       6.272  13.584  45.150  0.00  0.00    +0.000 C 
ENDBRANCH  13  14
ENDBRANCH   2  13
TORSDOF 6
ENDMDL
MODEL 8
REMARK VINA RESULT:    -5.855      3.390      7.269
REMARK INTER + INTRA:          -8.238
REMARK INTER:                  -6.943
REMARK INTRA:                  -1.295
REMARK UNBOUND:                -0.500
REMARK  Name = opt66.pdb
REMARK  7 active torsions:
REMARK  status: ('A' for Active; 'I' for Inactive)
REMARK    1  A    between atoms: C_2  and  O_3
REMARK    2  A    between atoms: C_2  and  C_4
REMARK    3  A    between atoms: O_3  and  C_5
REMARK    4  A    between atoms: C_4  and  C_6
REMARK    5  A    between atoms: C_4  and  C_7
REMARK    6  A    between atoms: C_7  and  O_12
REMARK    7  A    between atoms: N_17  and  C_21
REMARK                            x       y       z     vdW  Elec       q    Type
REMARK                         _______ _______ _______ _____ _____    ______ ____
ROOT
ATOM      1  O   UNL     1       8.046  10.683  43.441  0.00  0.00    +0.000 OA
ATOM      2  C   UNL     1       7.716  11.665  42.801  0.00  0.00    +0.000 C 
ENDROOT
BRANCH   2   3
ATOM      3  C   UNL     1       6.276  12.149  42.702  0.00  0.00    +0.000 C 
BRANCH   3   4
ATOM      4  C   UNL     1       6.059  13.370  43.591  0.00  0.00    +0.000 A 
ATOM      5  C   UNL     1       6.073  13.252  44.985  0.00  0.00    +0.000 A 
ATOM      6  C   UNL     1       5.874  14.631  43.017  0.00  0.00    +0.000 A 
ATOM      7  C   UNL     1       5.895  14.375  45.790  0.00  0.00    +0.000 A 
ATOM      8  C   UNL     1       5.699  15.754  43.824  0.00  0.00    +0.000 A 
ATOM      9  C   UNL     1       5.709  15.627  45.210  0.00  0.00    +0.000 A 
ENDBRANCH   3   4
BRANCH   3  10
ATOM     10  C   UNL     1       5.869  12.463  41.242  0.00  0.00    +0.000 C 
BRANCH  10  11
ATOM     11  O   UNL     1       6.552  11.613  40.314  0.00  0.00    +0.000 OA
ATOM     12  H   UNL     1       5.896  11.021  39.900  0.00  0.00    +0.000 HD
ENDBRANCH  10  11
ENDBRANCH   3  10
ENDBRANCH   2   3
BRANCH   2  13
ATOM     13  O   UNL     1       8.582  12.476  42.146  0.00  0.00    +0.000 OA
BRANCH  13  14
ATOM     14  C   UNL     1       9.760  12.963  42.843  0.00  0.00    +0.000 C 
ATOM     15  C   UNL     1      11.011  12.899  41.924  0.00  0.00    +0.000 C 
ATOM     16  C   UNL     1       9.505  14.408  43.342  0.00  0.00    +0.000 C 
ATOM     17  C   UNL     1      12.196  13.713  42.527  0.00  0.00    +0.000 C 
ATOM     18  C   UNL     1      10.828  15.078  43.823  0.00  0.00    +0.000 C 
ATOM     19  N   UNL     1      11.818  15.126  42.729  0.00  0.00    +0.000 NA
ATOM     20  C   UNL     1      12.486  13.281  43.983  0.00  0.00    +0.000 C 
ATOM     21  C   UNL     1      11.570  14.186  44.846  0.00  0.00    +0.000 C 
ATOM     22  C   UNL     1      11.488  15.935  41.533  0.00  0.00    +0.000 C 
ENDBRANCH  13  14
ENDBRANCH   2  13
TORSDOF 6
ENDMDL
MODEL 9
REMARK VINA RESULT:    -5.802      3.536      7.254
REMARK INTER + INTRA:          -8.168
REMARK INTER:                  -7.233
REMARK INTRA:                  -0.934
REMARK UNBOUND:                -0.500
REMARK  Name = opt66.pdb
REMARK  7 active torsions:
REMARK  status: ('A' for Active; 'I' for Inactive)
REMARK    1  A    between atoms: C_2  and  O_3
REMARK    2  A    between atoms: C_2  and  C_4
REMARK    3  A    between atoms: O_3  and  C_5
REMARK    4  A    between atoms: C_4  and  C_6
REMARK    5  A    between atoms: C_4  and  C_7
REMARK    6  A    between atoms: C_7  and  O_12
REMARK    7  A    between atoms: N_17  and  C_21
REMARK                            x       y       z     vdW  Elec       q    Type
REMARK                         _______ _______ _______ _____ _____    ______ ____
ROOT
ATOM      1  O   UNL     1      16.208  13.613  45.879  0.00  0.00    +0.000 OA
ATOM      2  C   UNL     1      15.588  13.349  44.865  0.00  0.00    +0.000 C 
ENDROOT
BRANCH   2   3
ATOM      3  C   UNL     1      14.200  12.726  44.878  0.00  0.00    +0.000 C 
BRANCH   3   4
ATOM      4  C   UNL     1      13.169  13.703  44.320  0.00  0.00    +0.000 A 
ATOM      5  C   UNL     1      12.392  13.365  43.206  0.00  0.00    +0.000 A 
ATOM      6  C   UNL     1      12.968  14.940  44.940  0.00  0.00    +0.000 A 
ATOM      7  C   UNL     1      11.438  14.255  42.715  0.00  0.00    +0.000 A 
ATOM      8  C   UNL     1      12.011  15.827  44.449  0.00  0.00    +0.000 A 
ATOM      9  C   UNL     1      11.247  15.486  43.337  0.00  0.00    +0.000 A 
ENDBRANCH   3   4
BRANCH   3  10
ATOM     10  C   UNL     1      14.156  11.389  44.098  0.00  0.00    +0.000 C 
BRANCH  10  11
ATOM     11  O   UNL     1      14.989  10.399  44.710  0.00  0.00    +0.000 OA
ATOM     12  H   UNL     1      14.672  10.252  45.620  0.00  0.00    +0.000 HD
ENDBRANCH  10  11
ENDBRANCH   3  10
ENDBRANCH   2   3
BRANCH   2  13
ATOM     13  O   UNL     1      16.024  13.620  43.611  0.00  0.00    +0.000 OA
BRANCH  13  14
ATOM     14  C   UNL     1      16.852  14.793  43.389  0.00  0.00    +0.000 C 
ATOM     15  C   UNL     1      18.326  14.383  43.114  0.00  0.00    +0.000 C 
ATOM     16  C   UNL     1      16.273  15.620  42.213  0.00  0.00    +0.000 C 
ATOM     17  C   UNL     1      19.149  15.582  42.551  0.00  0.00    +0.000 C 
ATOM     18  C   UNL     1      17.282  16.711  41.742  0.00  0.00    +0.000 C 
ATOM     19  N   UNL     1      18.550  16.095  41.303  0.00  0.00    +0.000 NA
ATOM     20  C   UNL     1      19.021  16.823  43.465  0.00  0.00    +0.000 C 
ATOM     21  C   UNL     1      17.774  17.572  42.929  0.00  0.00    +0.000 C 
ATOM     22  C   UNL     1      18.511  15.194  40.130  0.00  0.00    +0.000 C 
ENDBRANCH  13  14
ENDBRANCH   2  13
TORSDOF 6
ENDMDL
MODEL 10
REMARK VINA RESULT:    -5.755      2.748      6.942
REMARK INTER + INTRA:          -8.105
REMARK INTER:                  -7.069
REMARK INTRA:                  -1.036
REMARK UNBOUND:                -0.500
REMARK  Name = opt66.pdb
REMARK  7 active torsions:
REMARK  status: ('A' for Active; 'I' for Inactive)
REMARK    1  A    between atoms: C_2  and  O_3
REMARK    2  A    between atoms: C_2  and  C_4
REMARK    3  A    between atoms: O_3  and  C_5
REMARK    4  A    between atoms: C_4  and  C_6
REMARK    5  A    between atoms: C_4  and  C_7
REMARK    6  A    between atoms: C_7  and  O_12
REMARK    7  A    between atoms: N_17  and  C_21
REMARK                            x       y       z     vdW  Elec       q    Type
REMARK                         _______ _______ _______ _____ _____    ______ ____
ROOT
ATOM      1  O   UNL     1       8.861  12.478  41.652  0.00  0.00    +0.000 OA
ATOM      2  C   UNL     1       8.853  12.501  42.869  0.00  0.00    +0.000 C 
ENDROOT
BRANCH   2   3
ATOM      3  C   UNL     1       7.573  12.462  43.693  0.00  0.00    +0.000 C 
BRANCH   3   4
ATOM      4  C   UNL     1       7.264  13.842  44.266  0.00  0.00    +0.000 A 
ATOM      5  C   UNL     1       7.580  15.003  43.550  0.00  0.00    +0.000 A 
ATOM      6  C   UNL     1       6.630  13.960  45.506  0.00  0.00    +0.000 A 
ATOM      7  C   UNL     1       7.275  16.259  44.071  0.00  0.00    +0.000 A 
ATOM      8  C   UNL     1       6.324  15.218  46.025  0.00  0.00    +0.000 A 
ATOM      9  C   UNL     1       6.647  16.366  45.308  0.00  0.00    +0.000 A 
ENDBRANCH   3   4
BRANCH   3  10
ATOM     10  C   UNL     1       6.371  11.936  42.872  0.00  0.00    +0.000 C 
BRANCH  10  11
ATOM     11  O   UNL     1       6.553  10.566  42.498  0.00  0.00    +0.000 OA
ATOM     12  H   UNL     1       6.342  10.007  43.269  0.00  0.00    +0.000 HD
ENDBRANCH  10  11
ENDBRANCH   3  10
ENDBRANCH   2   3
BRANCH   2  13
ATOM     13  O   UNL     1       9.967  12.509  43.641  0.00  0.00    +0.000 OA
BRANCH  13  14
ATOM     14  C   UNL     1      10.922  13.593  43.491  0.00  0.00    +0.000 C 
ATOM     15  C   UNL     1      11.175  14.297  44.853  0.00  0.00    +0.000 C 
ATOM     16  C   UNL     1      12.241  13.041  42.894  0.00  0.00    +0.000 C 
ATOM     17  C   UNL     1      12.423  15.227  44.784  0.00  0.00    +0.000 C 
ATOM     18  C   UNL     1      13.388  14.091  42.997  0.00  0.00    +0.000 C 
ATOM     19  N   UNL     1      13.630  14.465  44.404  0.00  0.00    +0.000 NA
ATOM     20  C   UNL     1      12.319  16.213  43.598  0.00  0.00    +0.000 C 
ATOM     21  C   UNL     1      12.957  15.455  42.405  0.00  0.00    +0.000 C 
ATOM     22  C   UNL     1      14.104  13.410  45.328  0.00  0.00    +0.000 C 
ENDBRANCH  13  14
ENDBRANCH   2  13
TORSDOF 6
ENDMDL
MODEL 11
REMARK VINA RESULT:    -5.749      1.336      2.237
REMARK INTER + INTRA:          -8.098
REMARK INTER:                  -7.331
REMARK INTRA:                  -0.768
REMARK UNBOUND:                -0.500
REMARK  Name = opt66.pdb
REMARK  7 active torsions:
REMARK  status: ('A' for Active; 'I' for Inactive)
REMARK    1  A    between atoms: C_2  and  O_3
REMARK    2  A    between atoms: C_2  and  C_4
REMARK    3  A    between atoms: O_3  and  C_5
REMARK    4  A    between atoms: C_4  and  C_6
REMARK    5  A    between atoms: C_4  and  C_7
REMARK    6  A    between atoms: C_7  and  O_12
REMARK    7  A    between atoms: N_17  and  C_21
REMARK                            x       y       z     vdW  Elec       q    Type
REMARK                         _______ _______ _______ _____ _____    ______ ____
ROOT
ATOM      1  O   UNL     1      12.072  13.532  45.119  0.00  0.00    +0.000 OA
ATOM      2  C   UNL     1      12.357  13.558  43.935  0.00  0.00    +0.000 C 
ENDROOT
BRANCH   2   3
ATOM      3  C   UNL     1      13.774  13.353  43.417  0.00  0.00    +0.000 C 
BRANCH   3   4
ATOM      4  C   UNL     1      14.743  14.302  44.117  0.00  0.00    +0.000 A 
ATOM      5  C   UNL     1      14.573  15.689  44.033  0.00  0.00    +0.000 A 
ATOM      6  C   UNL     1      15.797  13.791  44.879  0.00  0.00    +0.000 A 
ATOM      7  C   UNL     1      15.449  16.549  44.692  0.00  0.00    +0.000 A 
ATOM      8  C   UNL     1      16.671  14.653  45.540  0.00  0.00    +0.000 A 
ATOM      9  C   UNL     1      16.498  16.031  45.447  0.00  0.00    +0.000 A 
ENDBRANCH   3   4
BRANCH   3  10
ATOM     10  C   UNL     1      14.243  11.887  43.577  0.00  0.00    +0.000 C 
BRANCH  10  11
ATOM     11  O   UNL     1      13.450  11.186  44.541  0.00  0.00    +0.000 OA
ATOM     12  H   UNL     1      13.171  10.337  44.150  0.00  0.00    +0.000 HD
ENDBRANCH  10  11
ENDBRANCH   3  10
ENDBRANCH   2   3
BRANCH   2  13
ATOM     13  O   UNL     1      11.457  13.719  42.936  0.00  0.00    +0.000 OA
BRANCH  13  14
ATOM     14  C   UNL     1      10.042  13.556  43.226  0.00  0.00    +0.000 C 
ATOM     15  C   UNL     1       9.384  14.927  43.546  0.00  0.00    +0.000 C 
ATOM     16  C   UNL     1       9.345  12.866  42.026  0.00  0.00    +0.000 C 
ATOM     17  C   UNL     1       7.828  14.822  43.531  0.00  0.00    +0.000 C 
ATOM     18  C   UNL     1       7.793  12.943  42.158  0.00  0.00    +0.000 C 
ATOM     19  N   UNL     1       7.343  14.348  42.219  0.00  0.00    +0.000 NA
ATOM     20  C   UNL     1       7.338  13.680  44.450  0.00  0.00    +0.000 C 
ATOM     21  C   UNL     1       7.319  12.427  43.538  0.00  0.00    +0.000 C 
ATOM     22  C   UNL     1       7.588  15.205  41.037  0.00  0.00    +0.000 C 
ENDBRANCH  13  14
ENDBRANCH   2  13
TORSDOF 6
ENDMDL
MODEL 12
REMARK VINA RESULT:    -5.705      1.901      2.972
REMARK INTER + INTRA:          -8.040
REMARK INTER:                  -7.378
REMARK INTRA:                  -0.662
REMARK UNBOUND:                -0.500
REMARK  Name = opt66.pdb
REMARK  7 active torsions:
REMARK  status: ('A' for Active; 'I' for Inactive)
REMARK    1  A    between atoms: C_2  and  O_3
REMARK    2  A    between atoms: C_2  and  C_4
REMARK    3  A    between atoms: O_3  and  C_5
REMARK    4  A    between atoms: C_4  and  C_6
REMARK    5  A    between atoms: C_4  and  C_7
REMARK    6  A    between atoms: C_7  and  O_12
REMARK    7  A    between atoms: N_17  and  C_21
REMARK                            x       y       z     vdW  Elec       q    Type
REMARK                         _______ _______ _______ _____ _____    ______ ____
ROOT
ATOM      1  O   UNL     1      10.653  13.877  44.511  0.00  0.00    +0.000 OA
ATOM      2  C   UNL     1      10.591  13.171  43.521  0.00  0.00    +0.000 C 
ENDROOT
BRANCH   2   3
ATOM      3  C   UNL     1      11.745  13.008  42.542  0.00  0.00    +0.000 C 
BRANCH   3   4
ATOM      4  C   UNL     1      13.077  13.282  43.235  0.00  0.00    +0.000 A 
ATOM      5  C   UNL     1      13.623  14.571  43.252  0.00  0.00    +0.000 A 
ATOM      6  C   UNL     1      13.753  12.248  43.889  0.00  0.00    +0.000 A 
ATOM      7  C   UNL     1      14.830  14.817  43.905  0.00  0.00    +0.000 A 
ATOM      8  C   UNL     1      14.958  12.497  44.544  0.00  0.00    +0.000 A 
ATOM      9  C   UNL     1      15.497  13.780  44.551  0.00  0.00    +0.000 A 
ENDBRANCH   3   4
BRANCH   3  10
ATOM     10  C   UNL     1      11.755  11.607  41.885  0.00  0.00    +0.000 C 
BRANCH  10  11
ATOM     11  O   UNL     1      11.090  11.619  40.617  0.00  0.00    +0.000 OA
ATOM     12  H   UNL     1      11.073  12.538  40.289  0.00  0.00    +0.000 HD
ENDBRANCH  10  11
ENDBRANCH   3  10
ENDBRANCH   2   3
BRANCH   2  13
ATOM     13  O   UNL     1       9.521  12.406  43.195  0.00  0.00    +0.000 OA
BRANCH  13  14
ATOM     14  C   UNL     1       8.185  12.895  43.490  0.00  0.00    +0.000 C 
ATOM     15  C   UNL     1       7.792  14.044  42.522  0.00  0.00    +0.000 C 
ATOM     16  C   UNL     1       7.175  11.723  43.408  0.00  0.00    +0.000 C 
ATOM     17  C   UNL     1       6.266  14.352  42.601  0.00  0.00    +0.000 C 
ATOM     18  C   UNL     1       5.707  12.245  43.416  0.00  0.00    +0.000 C 
ATOM     19  N   UNL     1       5.468  13.152  42.277  0.00  0.00    +0.000 NA
ATOM     20  C   UNL     1       5.825  14.606  44.061  0.00  0.00    +0.000 C 
ATOM     21  C   UNL     1       5.457  13.202  44.606  0.00  0.00    +0.000 C 
ATOM     22  C   UNL     1       5.580  12.592  40.911  0.00  0.00    +0.000 C 
ENDBRANCH  13  14
ENDBRANCH   2  13
TORSDOF 6
ENDMDL
MODEL 13
REMARK VINA RESULT:    -5.592      2.103      2.784
REMARK INTER + INTRA:          -7.891
REMARK INTER:                  -6.873
REMARK INTRA:                  -1.017
REMARK UNBOUND:                -0.500
REMARK  Name = opt66.pdb
REMARK  7 active torsions:
REMARK  status: ('A' for Active; 'I' for Inactive)
REMARK    1  A    between atoms: C_2  and  O_3
REMARK    2  A    between atoms: C_2  and  C_4
REMARK    3  A    between atoms: O_3  and  C_5
REMARK    4  A    between atoms: C_4  and  C_6
REMARK    5  A    between atoms: C_4  and  C_7
REMARK    6  A    between atoms: C_7  and  O_12
REMARK    7  A    between atoms: N_17  and  C_21
REMARK                            x       y       z     vdW  Elec       q    Type
REMARK                         _______ _______ _______ _____ _____    ______ ____
ROOT
ATOM      1  O   UNL     1      12.382  12.461  44.512  0.00  0.00    +0.000 OA
ATOM      2  C   UNL     1      12.136  13.025  43.461  0.00  0.00    +0.000 C 
ENDROOT
BRANCH   2   3
ATOM      3  C   UNL     1      13.078  14.035  42.820  0.00  0.00    +0.000 C 
BRANCH   3   4
ATOM      4  C   UNL     1      13.159  15.303  43.665  0.00  0.00    +0.000 A 
ATOM      5  C   UNL     1      11.996  15.931  44.127  0.00  0.00    +0.000 A 
ATOM      6  C   UNL     1      14.403  15.834  44.014  0.00  0.00    +0.000 A 
ATOM      7  C   UNL     1      12.079  17.076  44.917  0.00  0.00    +0.000 A 
ATOM      8  C   UNL     1      14.484  16.979  44.807  0.00  0.00    +0.000 A 
ATOM      9  C   UNL     1      13.323  17.600  45.257  0.00  0.00    +0.000 A 
ENDBRANCH   3   4
BRANCH   3  10
ATOM     10  C   UNL     1      14.491  13.446  42.591  0.00  0.00    +0.000 C 
BRANCH  10  11
ATOM     11  O   UNL     1      14.556  12.072  42.987  0.00  0.00    +0.000 OA
ATOM     12  H   UNL     1      14.992  11.568  42.275  0.00  0.00    +0.000 HD
ENDBRANCH  10  11
ENDBRANCH   3  10
ENDBRANCH   2   3
BRANCH   2  13
ATOM     13  O   UNL     1      11.034  12.791  42.708  0.00  0.00    +0.000 OA
BRANCH  13  14
ATOM     14  C   UNL     1       9.757  13.337  43.136  0.00  0.00    +0.000 C 
ATOM     15  C   UNL     1       9.177  14.294  42.058  0.00  0.00    +0.000 C 
ATOM     16  C   UNL     1       8.776  12.177  43.441  0.00  0.00    +0.000 C 
ATOM     17  C   UNL     1       7.680  14.622  42.342  0.00  0.00    +0.000 C 
ATOM     18  C   UNL     1       7.318  12.704  43.608  0.00  0.00    +0.000 C 
ATOM     19  N   UNL     1       6.867  13.390  42.382  0.00  0.00    +0.000 NA
ATOM     20  C   UNL     1       7.489  15.142  43.785  0.00  0.00    +0.000 C 
ATOM     21  C   UNL     1       7.252  13.863  44.630  0.00  0.00    +0.000 C 
ATOM     22  C   UNL     1       6.758  12.590  41.141  0.00  0.00    +0.000 C 
ENDBRANCH  13  14
ENDBRANCH   2  13
TORSDOF 6
ENDMDL
MODEL 14
REMARK VINA RESULT:    -5.587      1.950      3.106
REMARK INTER + INTRA:          -7.884
REMARK INTER:                  -6.996
REMARK INTRA:                  -0.888
REMARK UNBOUND:                -0.500
REMARK  Name = opt66.pdb
REMARK  7 active torsions:
REMARK  status: ('A' for Active; 'I' for Inactive)
REMARK    1  A    between atoms: C_2  and  O_3
REMARK    2  A    between atoms: C_2  and  C_4
REMARK    3  A    between atoms: O_3  and  C_5
REMARK    4  A    between atoms: C_4  and  C_6
REMARK    5  A    between atoms: C_4  and  C_7
REMARK    6  A    between atoms: C_7  and  O_12
REMARK    7  A    between atoms: N_17  and  C_21
REMARK                            x       y       z     vdW  Elec       q    Type
REMARK                         _______ _______ _______ _____ _____    ______ ____
ROOT
ATOM      1  O   UNL     1      11.230  14.312  42.260  0.00  0.00    +0.000 OA
ATOM      2  C   UNL     1      10.958  14.167  43.439  0.00  0.00    +0.000 C 
ENDROOT
BRANCH   2   3
ATOM      3  C   UNL     1      11.695  14.892  44.556  0.00  0.00    +0.000 C 
BRANCH   3   4
ATOM      4  C   UNL     1      13.148  14.430  44.627  0.00  0.00    +0.000 A 
ATOM      5  C   UNL     1      13.465  13.067  44.658  0.00  0.00    +0.000 A 
ATOM      6  C   UNL     1      14.183  15.370  44.631  0.00  0.00    +0.000 A 
ATOM      7  C   UNL     1      14.795  12.653  44.701  0.00  0.00    +0.000 A 
ATOM      8  C   UNL     1      15.513  14.953  44.672  0.00  0.00    +0.000 A 
ATOM      9  C   UNL     1      15.819  13.596  44.708  0.00  0.00    +0.000 A 
ENDBRANCH   3   4
BRANCH   3  10
ATOM     10  C   UNL     1      11.624  16.430  44.395  0.00  0.00    +0.000 C 
BRANCH  10  11
ATOM     11  O   UNL     1      10.644  16.809  43.423  0.00  0.00    +0.000 OA
ATOM     12  H   UNL     1      11.108  17.162  42.641  0.00  0.00    +0.000 HD
ENDBRANCH  10  11
ENDBRANCH   3  10
ENDBRANCH   2   3
BRANCH   2  13
ATOM     13  O   UNL     1       9.945  13.396  43.900  0.00  0.00    +0.000 OA
BRANCH  13  14
ATOM     14  C   UNL     1       8.717  13.305  43.128  0.00  0.00    +0.000 C 
ATOM     15  C   UNL     1       7.942  12.004  43.475  0.00  0.00    +0.000 C 
ATOM     16  C   UNL     1       7.848  14.561  43.391  0.00  0.00    +0.000 C 
ATOM     17  C   UNL     1       6.487  12.049  42.918  0.00  0.00    +0.000 C 
ATOM     18  C   UNL     1       6.405  14.373  42.833  0.00  0.00    +0.000 C 
ATOM     19  N   UNL     1       5.749  13.208  43.459  0.00  0.00    +0.000 NA
ATOM     20  C   UNL     1       6.479  12.381  41.408  0.00  0.00    +0.000 C 
ATOM     21  C   UNL     1       6.429  13.929  41.351  0.00  0.00    +0.000 C 
ATOM     22  C   UNL     1       5.504  13.255  44.918  0.00  0.00    +0.000 C 
ENDBRANCH  13  14
ENDBRANCH   2  13
TORSDOF 6
ENDMDL
MODEL 15
REMARK VINA RESULT:    -5.562      1.817      3.060
REMARK INTER + INTRA:          -7.851
REMARK INTER:                  -6.899
REMARK INTRA:                  -0.953
REMARK UNBOUND:                -0.500
REMARK  Name = opt66.pdb
REMARK  7 active torsions:
REMARK  status: ('A' for Active; 'I' for Inactive)
REMARK    1  A    between atoms: C_2  and  O_3
REMARK    2  A    between atoms: C_2  and  C_4
REMARK    3  A    between atoms: O_3  and  C_5
REMARK    4  A    between atoms: C_4  and  C_6
REMARK    5  A    between atoms: C_4  and  C_7
REMARK    6  A    between atoms: C_7  and  O_12
REMARK    7  A    between atoms: N_17  and  C_21
REMARK                            x       y       z     vdW  Elec       q    Type
REMARK                         _______ _______ _______ _____ _____    ______ ____
ROOT
ATOM      1  O   UNL     1      10.735  13.440  44.788  0.00  0.00    +0.000 OA
ATOM      2  C   UNL     1      10.733  13.725  43.604  0.00  0.00    +0.000 C 
ENDROOT
BRANCH   2   3
ATOM      3  C   UNL     1      11.935  13.510  42.695  0.00  0.00    +0.000 C 
BRANCH   3   4
ATOM      4  C   UNL     1      13.234  13.644  43.486  0.00  0.00    +0.000 A 
ATOM      5  C   UNL     1      13.983  12.512  43.828  0.00  0.00    +0.000 A 
ATOM      6  C   UNL     1      13.706  14.907  43.850  0.00  0.00    +0.000 A 
ATOM      7  C   UNL     1      15.179  12.643  44.531  0.00  0.00    +0.000 A 
ATOM      8  C   UNL     1      14.904  15.037  44.551  0.00  0.00    +0.000 A 
ATOM      9  C   UNL     1      15.640  13.906  44.893  0.00  0.00    +0.000 A 
ENDBRANCH   3   4
BRANCH   3  10
ATOM     10  C   UNL     1      11.879  12.142  41.973  0.00  0.00    +0.000 C 
BRANCH  10  11
ATOM     11  O   UNL     1      10.838  11.314  42.502  0.00  0.00    +0.000 OA
ATOM     12  H   UNL     1      11.002  10.396  42.217  0.00  0.00    +0.000 HD
ENDBRANCH  10  11
ENDBRANCH   3  10
ENDBRANCH   2   3
BRANCH   2  13
ATOM     13  O   UNL     1       9.659  14.213  42.937  0.00  0.00    +0.000 OA
BRANCH  13  14
ATOM     14  C   UNL     1       8.370  13.564  43.101  0.00  0.00    +0.000 C 
ATOM     15  C   UNL     1       7.319  14.559  43.666  0.00  0.00    +0.000 C 
ATOM     16  C   UNL     1       7.911  12.976  41.743  0.00  0.00    +0.000 C 
ATOM     17  C   UNL     1       5.874  13.987  43.537  0.00  0.00    +0.000 C 
ATOM     18  C   UNL     1       6.415  12.540  41.796  0.00  0.00    +0.000 C 
ATOM     19  N   UNL     1       5.548  13.688  42.128  0.00  0.00    +0.000 NA
ATOM     20  C   UNL     1       5.776  12.576  44.161  0.00  0.00    +0.000 C 
ATOM     21  C   UNL     1       6.141  11.612  43.003  0.00  0.00    +0.000 C 
ATOM     22  C   UNL     1       5.500  14.818  41.172  0.00  0.00    +0.000 C 
ENDBRANCH  13  14
ENDBRANCH   2  13
TORSDOF 6
ENDMDL
MODEL 16
REMARK VINA RESULT:    -5.539      2.277      3.584
REMARK INTER + INTRA:          -7.821
REMARK INTER:                  -6.755
REMARK INTRA:                  -1.066
REMARK UNBOUND:                -0.500
REMARK  Name = opt66.pdb
REMARK  7 active torsions:
REMARK  status: ('A' for Active; 'I' for Inactive)
REMARK    1  A    between atoms: C_2  and  O_3
REMARK    2  A    between atoms: C_2  and  C_4
REMARK    3  A    between atoms: O_3  and  C_5
REMARK    4  A    between atoms: C_4  and  C_6
REMARK    5  A    between atoms: C_4  and  C_7
REMARK    6  A    between atoms: C_7  and  O_12
REMARK    7  A    between atoms: N_17  and  C_21
REMARK                            x       y       z     vdW  Elec       q    Type
REMARK                         _______ _______ _______ _____ _____    ______ ____
ROOT
ATOM      1  O   UNL     1      11.371  15.566  42.408  0.00  0.00    +0.000 OA
ATOM      2  C   UNL     1      10.960  15.814  43.527  0.00  0.00    +0.000 C 
ENDROOT
BRANCH   2   3
ATOM      3  C   UNL     1      11.880  16.027  44.721  0.00  0.00    +0.000 C 
BRANCH   3   4
ATOM      4  C   UNL     1      12.995  14.985  44.730  0.00  0.00    +0.000 A 
ATOM      5  C   UNL     1      12.698  13.620  44.812  0.00  0.00    +0.000 A 
ATOM      6  C   UNL     1      14.330  15.386  44.626  0.00  0.00    +0.000 A 
ATOM      7  C   UNL     1      13.721  12.673  44.799  0.00  0.00    +0.000 A 
ATOM      8  C   UNL     1      15.352  14.438  44.610  0.00  0.00    +0.000 A 
ATOM      9  C   UNL     1      15.048  13.082  44.697  0.00  0.00    +0.000 A 
ENDBRANCH   3   4
BRANCH   3  10
ATOM     10  C   UNL     1      12.474  17.456  44.748  0.00  0.00    +0.000 C 
BRANCH  10  11
ATOM     11  O   UNL     1      11.805  18.318  43.821  0.00  0.00    +0.000 OA
ATOM     12  H   UNL     1      11.661  17.824  42.992  0.00  0.00    +0.000 HD
ENDBRANCH  10  11
ENDBRANCH   3  10
ENDBRANCH   2   3
BRANCH   2  13
ATOM     13  O   UNL     1       9.653  15.983  43.841  0.00  0.00    +0.000 OA
BRANCH  13  14
ATOM     14  C   UNL     1       8.680  15.018  43.360  0.00  0.00    +0.000 C 
ATOM     15  C   UNL     1       8.789  13.685  44.149  0.00  0.00    +0.000 C 
ATOM     16  C   UNL     1       7.256  15.621  43.472  0.00  0.00    +0.000 C 
ATOM     17  C   UNL     1       7.555  12.769  43.883  0.00  0.00    +0.000 C 
ATOM     18  C   UNL     1       6.165  14.528  43.258  0.00  0.00    +0.000 C 
ATOM     19  N   UNL     1       6.300  13.451  44.259  0.00  0.00    +0.000 NA
ATOM     20  C   UNL     1       7.330  12.565  42.367  0.00  0.00    +0.000 C 
ATOM     21  C   UNL     1       6.409  13.739  41.949  0.00  0.00    +0.000 C 
ATOM     22  C   UNL     1       6.100  13.802  45.683  0.00  0.00    +0.000 C 
ENDBRANCH  13  14
ENDBRANCH   2  13
TORSDOF 6
ENDMDL
MODEL 17
REMARK VINA RESULT:    -5.510      2.281      3.714
REMARK INTER + INTRA:          -7.782
REMARK INTER:                  -6.569
REMARK INTRA:                  -1.213
REMARK UNBOUND:                -0.500
REMARK  Name = opt66.pdb
REMARK  7 active torsions:
REMARK  status: ('A' for Active; 'I' for Inactive)
REMARK    1  A    between atoms: C_2  and  O_3
REMARK    2  A    between atoms: C_2  and  C_4
REMARK    3  A    between atoms: O_3  and  C_5
REMARK    4  A    between atoms: C_4  and  C_6
REMARK    5  A    between atoms: C_4  and  C_7
REMARK    6  A    between atoms: C_7  and  O_12
REMARK    7  A    between atoms: N_17  and  C_21
REMARK                            x       y       z     vdW  Elec       q    Type
REMARK                         _______ _______ _______ _____ _____    ______ ____
ROOT
ATOM      1  O   UNL     1      12.300  16.405  42.114  0.00  0.00    +0.000 OA
ATOM      2  C   UNL     1      11.511  16.290  43.034  0.00  0.00    +0.000 C 
ENDROOT
BRANCH   2   3
ATOM      3  C   UNL     1      11.944  16.108  44.482  0.00  0.00    +0.000 C 
BRANCH   3   4
ATOM      4  C   UNL     1      12.970  14.984  44.597  0.00  0.00    +0.000 A 
ATOM      5  C   UNL     1      12.569  13.643  44.570  0.00  0.00    +0.000 A 
ATOM      6  C   UNL     1      14.330  15.285  44.701  0.00  0.00    +0.000 A 
ATOM      7  C   UNL     1      13.513  12.623  44.654  0.00  0.00    +0.000 A 
ATOM      8  C   UNL     1      15.275  14.262  44.783  0.00  0.00    +0.000 A 
ATOM      9  C   UNL     1      14.867  12.932  44.760  0.00  0.00    +0.000 A 
ENDBRANCH   3   4
BRANCH   3  10
ATOM     10  C   UNL     1      12.505  17.417  45.088  0.00  0.00    +0.000 C 
BRANCH  10  11
ATOM     11  O   UNL     1      12.090  18.562  44.335  0.00  0.00    +0.000 OA
ATOM     12  H   UNL     1      11.248  18.884  44.707  0.00  0.00    +0.000 HD
ENDBRANCH  10  11
ENDBRANCH   3  10
ENDBRANCH   2   3
BRANCH   2  13
ATOM     13  O   UNL     1      10.165  16.360  42.899  0.00  0.00    +0.000 OA
BRANCH  13  14
ATOM     14  C   UNL     1       9.367  15.168  43.131  0.00  0.00    +0.000 C 
ATOM     15  C   UNL     1       7.889  15.543  43.431  0.00  0.00    +0.000 C 
ATOM     16  C   UNL     1       9.469  14.231  41.902  0.00  0.00    +0.000 C 
ATOM     17  C   UNL     1       6.963  14.291  43.353  0.00  0.00    +0.000 C 
ATOM     18  C   UNL     1       8.404  13.095  41.971  0.00  0.00    +0.000 C 
ATOM     19  N   UNL     1       7.040  13.658  42.021  0.00  0.00    +0.000 NA
ATOM     20  C   UNL     1       7.496  13.148  44.247  0.00  0.00    +0.000 C 
ATOM     21  C   UNL     1       8.460  12.353  43.328  0.00  0.00    +0.000 C 
ATOM     22  C   UNL     1       6.572  14.439  40.853  0.00  0.00    +0.000 C 
ENDBRANCH  13  14
ENDBRANCH   2  13
TORSDOF 6
ENDMDL
MODEL 18
REMARK VINA RESULT:    -5.406      3.015      6.497
REMARK INTER + INTRA:          -7.645
REMARK INTER:                  -6.697
REMARK INTRA:                  -0.948
REMARK UNBOUND:                -0.500
REMARK  Name = opt66.pdb
REMARK  7 active torsions:
REMARK  status: ('A' for Active; 'I' for Inactive)
REMARK    1  A    between atoms: C_2  and  O_3
REMARK    2  A    between atoms: C_2  and  C_4
REMARK    3  A    between atoms: O_3  and  C_5
REMARK    4  A    between atoms: C_4  and  C_6
REMARK    5  A    between atoms: C_4  and  C_7
REMARK    6  A    between atoms: C_7  and  O_12
REMARK    7  A    between atoms: N_17  and  C_21
REMARK                            x       y       z     vdW  Elec       q    Type
REMARK                         _______ _______ _______ _____ _____    ______ ____
ROOT
ATOM      1  O   UNL     1      13.279  11.493  44.609  0.00  0.00    +0.000 OA
ATOM      2  C   UNL     1      12.905  12.312  43.788  0.00  0.00    +0.000 C 
ENDROOT
BRANCH   2   3
ATOM      3  C   UNL     1      11.461  12.784  43.684  0.00  0.00    +0.000 C 
BRANCH   3   4
ATOM      4  C   UNL     1      11.399  14.307  43.619  0.00  0.00    +0.000 A 
ATOM      5  C   UNL     1      10.996  14.957  42.446  0.00  0.00    +0.000 A 
ATOM      6  C   UNL     1      11.717  15.071  44.745  0.00  0.00    +0.000 A 
ATOM      7  C   UNL     1      10.921  16.348  42.401  0.00  0.00    +0.000 A 
ATOM      8  C   UNL     1      11.639  16.462  44.699  0.00  0.00    +0.000 A 
ATOM      9  C   UNL     1      11.243  17.101  43.527  0.00  0.00    +0.000 A 
ENDBRANCH   3   4
BRANCH   3  10
ATOM     10  C   UNL     1      10.734  12.160  42.468  0.00  0.00    +0.000 C 
BRANCH  10  11
ATOM     11  O   UNL     1      10.944  10.745  42.403  0.00  0.00    +0.000 OA
ATOM     12  H   UNL     1      10.607  10.347  43.227  0.00  0.00    +0.000 HD
ENDBRANCH  10  11
ENDBRANCH   3  10
ENDBRANCH   2   3
BRANCH   2  13
ATOM     13  O   UNL     1      13.722  12.941  42.910  0.00  0.00    +0.000 OA
BRANCH  13  14
ATOM     14  C   UNL     1      14.669  13.926  43.405  0.00  0.00    +0.000 C 
ATOM     15  C   UNL     1      16.027  13.258  43.753  0.00  0.00    +0.000 C 
ATOM     16  C   UNL     1      14.850  15.045  42.349  0.00  0.00    +0.000 C 
ATOM     17  C   UNL     1      17.143  14.325  43.964  0.00  0.00    +0.000 C 
ATOM     18  C   UNL     1      16.068  15.954  42.696  0.00  0.00    +0.000 C 
ATOM     19  N   UNL     1      17.311  15.160  42.757  0.00  0.00    +0.000 NA
ATOM     20  C   UNL     1      16.706  15.392  44.994  0.00  0.00    +0.000 C 
ATOM     21  C   UNL     1      15.985  16.475  44.151  0.00  0.00    +0.000 C 
ATOM     22  C   UNL     1      17.772  14.500  41.515  0.00  0.00    +0.000 C 
ENDBRANCH  13  14
ENDBRANCH   2  13
TORSDOF 6
ENDMDL
MODEL 19
REMARK VINA RESULT:    -5.397      1.877      3.042
REMARK INTER + INTRA:          -7.633
REMARK INTER:                  -6.722
REMARK INTRA:                  -0.911
REMARK UNBOUND:                -0.500
REMARK  Name = opt66.pdb
REMARK  7 active torsions:
REMARK  status: ('A' for Active; 'I' for Inactive)
REMARK    1  A    between atoms: C_2  and  O_3
REMARK    2  A    between atoms: C_2  and  C_4
REMARK    3  A    between atoms: O_3  and  C_5
REMARK    4  A    between atoms: C_4  and  C_6
REMARK    5  A    between atoms: C_4  and  C_7
REMARK    6  A    between atoms: C_7  and  O_12
REMARK    7  A    between atoms: N_17  and  C_21
REMARK                            x       y       z     vdW  Elec       q    Type
REMARK                         _______ _______ _______ _____ _____    ______ ____
ROOT
ATOM      1  O   UNL     1      11.512  14.559  41.775  0.00  0.00    +0.000 OA
ATOM      2  C   UNL     1      11.123  13.968  42.766  0.00  0.00    +0.000 C 
ENDROOT
BRANCH   2   3
ATOM      3  C   UNL     1      11.559  14.335  44.177  0.00  0.00    +0.000 C 
BRANCH   3   4
ATOM      4  C   UNL     1      13.034  14.006  44.385  0.00  0.00    +0.000 A 
ATOM      5  C   UNL     1      13.960  15.015  44.675  0.00  0.00    +0.000 A 
ATOM      6  C   UNL     1      13.473  12.680  44.316  0.00  0.00    +0.000 A 
ATOM      7  C   UNL     1      15.302  14.703  44.884  0.00  0.00    +0.000 A 
ATOM      8  C   UNL     1      14.816  12.370  44.528  0.00  0.00    +0.000 A 
ATOM      9  C   UNL     1      15.730  13.381  44.811  0.00  0.00    +0.000 A 
ENDBRANCH   3   4
BRANCH   3  10
ATOM     10  C   UNL     1      11.287  15.825  44.500  0.00  0.00    +0.000 C 
BRANCH  10  11
ATOM     11  O   UNL     1      10.435  16.425  43.518  0.00  0.00    +0.000 OA
ATOM     12  H   UNL     1       9.532  16.474  43.884  0.00  0.00    +0.000 HD
ENDBRANCH  10  11
ENDBRANCH   3  10
ENDBRANCH   2   3
BRANCH   2  13
ATOM     13  O   UNL     1      10.222  12.956  42.748  0.00  0.00    +0.000 OA
BRANCH  13  14
ATOM     14  C   UNL     1       8.836  13.237  43.085  0.00  0.00    +0.000 C 
ATOM     15  C   UNL     1       8.173  14.126  41.997  0.00  0.00    +0.000 C 
ATOM     16  C   UNL     1       8.068  11.903  43.263  0.00  0.00    +0.000 C 
ATOM     17  C   UNL     1       6.624  14.161  42.164  0.00  0.00    +0.000 C 
ATOM     18  C   UNL     1       6.529  12.145  43.324  0.00  0.00    +0.000 C 
ATOM     19  N   UNL     1       6.053  12.801  42.090  0.00  0.00    +0.000 NA
ATOM     20  C   UNL     1       6.228  14.561  43.604  0.00  0.00    +0.000 C 
ATOM     21  C   UNL     1       6.170  13.219  44.378  0.00  0.00    +0.000 C 
ATOM     22  C   UNL     1       6.191  12.059  40.816  0.00  0.00    +0.000 C 
ENDBRANCH  13  14
ENDBRANCH   2  13
TORSDOF 6
ENDMDL
MODEL 20
REMARK VINA RESULT:    -5.330      2.645      6.706
REMARK INTER + INTRA:          -7.545
REMARK INTER:                  -6.548
REMARK INTRA:                  -0.997
REMARK UNBOUND:                -0.500
REMARK  Name = opt66.pdb
REMARK  7 active torsions:
REMARK  status: ('A' for Active; 'I' for Inactive)
REMARK    1  A    between atoms: C_2  and  O_3
REMARK    2  A    between atoms: C_2  and  C_4
REMARK    3  A    between atoms: O_3  and  C_5
REMARK    4  A    between atoms: C_4  and  C_6
REMARK    5  A    between atoms: C_4  and  C_7
REMARK    6  A    between atoms: C_7  and  O_12
REMARK    7  A    between atoms: N_17  and  C_21
REMARK                            x       y       z     vdW  Elec       q    Type
REMARK                         _______ _______ _______ _____ _____    ______ ____
ROOT
ATOM      1  O   UNL     1      11.055  13.356  41.634  0.00  0.00    +0.000 OA
ATOM      2  C   UNL     1      11.242  13.334  42.837  0.00  0.00    +0.000 C 
ENDROOT
BRANCH   2   3
ATOM      3  C   UNL     1      10.141  13.599  43.854  0.00  0.00    +0.000 C 
BRANCH   3   4
ATOM      4  C   UNL     1       9.608  15.022  43.706  0.00  0.00    +0.000 A 
ATOM      5  C   UNL     1       8.231  15.275  43.724  0.00  0.00    +0.000 A 
ATOM      6  C   UNL     1      10.495  16.094  43.582  0.00  0.00    +0.000 A 
ATOM      7  C   UNL     1       7.752  16.578  43.610  0.00  0.00    +0.000 A 
ATOM      8  C   UNL     1      10.014  17.398  43.471  0.00  0.00    +0.000 A 
ATOM      9  C   UNL     1       8.643  17.640  43.484  0.00  0.00    +0.000 A 
ENDBRANCH   3   4
BRANCH   3  10
ATOM     10  C   UNL     1       8.987  12.574  43.741  0.00  0.00    +0.000 C 
BRANCH  10  11
ATOM     11  O   UNL     1       9.367  11.446  42.945  0.00  0.00    +0.000 OA
ATOM     12  H   UNL     1       8.628  11.232  42.345  0.00  0.00    +0.000 HD
ENDBRANCH  10  11
ENDBRANCH   3  10
ENDBRANCH   2   3
BRANCH   2  13
ATOM     13  O   UNL     1      12.425  13.022  43.420  0.00  0.00    +0.000 OA
BRANCH  13  14
ATOM     14  C   UNL     1      13.594  13.832  43.125  0.00  0.00    +0.000 C 
ATOM     15  C   UNL     1      13.803  14.919  44.216  0.00  0.00    +0.000 C 
ATOM     16  C   UNL     1      14.839  12.917  43.001  0.00  0.00    +0.000 C 
ATOM     17  C   UNL     1      15.214  15.570  44.100  0.00  0.00    +0.000 C 
ATOM     18  C   UNL     1      16.153  13.755  42.987  0.00  0.00    +0.000 C 
ATOM     19  N   UNL     1      16.278  14.553  44.223  0.00  0.00    +0.000 NA
ATOM     20  C   UNL     1      15.473  16.088  42.667  0.00  0.00    +0.000 C 
ATOM     21  C   UNL     1      16.094  14.877  41.923  0.00  0.00    +0.000 C 
ATOM     22  C   UNL     1      16.398  13.825  45.506  0.00  0.00    +0.000 C 
ENDBRANCH  13  14
ENDBRANCH   2  13
TORSDOF 6
ENDMDL
