MODEL 1
REMARK VINA RESULT:    -6.471      0.000      0.000
REMARK INTER + INTRA:         -13.146
REMARK INTER:                 -10.631
REMARK INTRA:                  -2.515
REMARK UNBOUND:                -2.515
REMARK  Name = opt13.pdb
REMARK  17 active torsions:
REMARK  status: ('A' for Active; 'I' for Inactive)
REMARK    1  A    between atoms: C_6  and  O_10
REMARK    2  A    between atoms: C_7  and  C_12
REMARK    3  A    between atoms: C_13  and  O_16
REMARK    4  A    between atoms: O_16  and  C_19
REMARK    5  A    between atoms: C_17  and  O_20
REMARK    6  A    between atoms: C_21  and  O_24
REMARK    7  A    between atoms: C_23  and  O_26
REMARK    8  A    between atoms: O_24  and  C_28
REMARK    9  A    between atoms: C_25  and  C_30
REMARK   10  A    between atoms: C_27  and  O_31
REMARK   11  A    between atoms: C_29  and  O_32
REMARK   12  A    between atoms: C_30  and  O_33
REMARK   13  A    between atoms: O_33  and  C_34
REMARK   14  A    between atoms: C_36  and  O_38
REMARK   15  A    between atoms: C_37  and  C_41
REMARK   16  A    between atoms: C_39  and  O_42
REMARK   17  A    between atoms: C_40  and  O_43
REMARK                            x       y       z     vdW  Elec       q    Type
REMARK                         _______ _______ _______ _____ _____    ______ ____
ROOT
ATOM      1  C   UNL     1       8.356  14.662  42.151  0.00  0.00    +0.000 C 
ATOM      2  O   UNL     1       8.539  16.055  42.507  0.00  0.00    +0.000 OA
ATOM      3  C   UNL     1       7.072  14.518  41.308  0.00  0.00    +0.000 C 
ATOM      4  C   UNL     1       8.674  16.968  41.383  0.00  0.00    +0.000 C 
ATOM      5  C   UNL     1       7.063  15.496  40.107  0.00  0.00    +0.000 C 
ATOM      6  C   UNL     1       7.368  16.944  40.558  0.00  0.00    +0.000 C 
ENDROOT
BRANCH   3   7
ATOM      7  O   UNL     1       5.960  14.792  42.166  0.00  0.00    +0.000 OA
ATOM      8  H   UNL     1       6.114  15.670  42.561  0.00  0.00    +0.000 HD
ENDBRANCH   3   7
BRANCH   5   9
ATOM      9  O   UNL     1       5.771  15.452  39.501  0.00  0.00    +0.000 OA
ATOM     10  H   UNL     1       5.309  14.696  39.915  0.00  0.00    +0.000 HD
ENDBRANCH   5   9
BRANCH   6  11
ATOM     11  O   UNL     1       7.492  17.797  39.411  0.00  0.00    +0.000 OA
ATOM     12  H   UNL     1       7.686  18.707  39.703  0.00  0.00    +0.000 HD
ENDBRANCH   6  11
BRANCH   1  13
ATOM     13  O   UNL     1       9.507  14.173  41.419  0.00  0.00    +0.000 OA
BRANCH  13  24
ATOM     14  O   UNL     1      13.786  10.412  44.506  0.00  0.00    +0.000 OA
ATOM     15  C   UNL     1      13.784  11.585  44.180  0.00  0.00    +0.000 C 
ATOM     16  C   UNL     1      12.647  12.240  43.432  0.00  0.00    +0.000 A 
ATOM     17  C   UNL     1      14.989  12.439  44.501  0.00  0.00    +0.000 C 
ATOM     18  C   UNL     1      12.736  13.603  43.129  0.00  0.00    +0.000 A 
ATOM     19  C   UNL     1      11.499  11.535  43.039  0.00  0.00    +0.000 A 
ATOM     20  C   UNL     1      14.595  13.919  44.677  0.00  0.00    +0.000 C 
ATOM     21  O   UNL     1      13.835  14.341  43.522  0.00  0.00    +0.000 OA
ATOM     22  C   UNL     1      11.713  14.251  42.444  0.00  0.00    +0.000 A 
ATOM     23  C   UNL     1      10.463  12.193  42.370  0.00  0.00    +0.000 A 
ATOM     24  C   UNL     1      10.565  13.550  42.064  0.00  0.00    +0.000 A 
BRANCH  20  25
ATOM     25  C   UNL     1      15.814  14.817  44.808  0.00  0.00    +0.000 A 
ATOM     26  C   UNL     1      17.090  14.260  44.764  0.00  0.00    +0.000 A 
ATOM     27  C   UNL     1      15.670  16.188  44.999  0.00  0.00    +0.000 A 
ATOM     28  C   UNL     1      18.223  15.051  44.943  0.00  0.00    +0.000 A 
ATOM     29  C   UNL     1      16.798  16.990  45.164  0.00  0.00    +0.000 A 
ATOM     30  C   UNL     1      18.079  16.437  45.148  0.00  0.00    +0.000 A 
BRANCH  28  31
ATOM     31  O   UNL     1      19.429  14.413  44.930  0.00  0.00    +0.000 OA
ATOM     32  H   UNL     1      20.107  15.012  45.291  0.00  0.00    +0.000 HD
ENDBRANCH  28  31
BRANCH  30  33
ATOM     33  O   UNL     1      19.123  17.329  45.354  0.00  0.00    +0.000 OA
ATOM     34  C   UNL     1      19.334  18.116  46.548  0.00  0.00    +0.000 C 
ENDBRANCH  30  33
ENDBRANCH  20  25
BRANCH  19  35
ATOM     35  O   UNL     1      11.372  10.202  43.297  0.00  0.00    +0.000 OA
ATOM     36  H   UNL     1      11.291  10.098  44.276  0.00  0.00    +0.000 HD
ENDBRANCH  19  35
ENDBRANCH  13  24
ENDBRANCH   1  13
BRANCH   4  37
ATOM     37  C   UNL     1       8.983  18.364  41.943  0.00  0.00    +0.000 C 
BRANCH  37  38
ATOM     38  O   UNL     1      10.099  18.870  41.184  0.00  0.00    +0.000 OA
BRANCH  38  39
ATOM     39  C   UNL     1      11.012  19.724  41.898  0.00  0.00    +0.000 C 
ATOM     40  O   UNL     1      11.443  19.122  43.149  0.00  0.00    +0.000 OA
ATOM     41  C   UNL     1      12.235  19.940  40.985  0.00  0.00    +0.000 C 
ATOM     42  C   UNL     1      12.119  17.837  43.044  0.00  0.00    +0.000 C 
ATOM     43  C   UNL     1      12.983  18.599  40.791  0.00  0.00    +0.000 C 
ATOM     44  C   UNL     1      13.380  17.995  42.159  0.00  0.00    +0.000 C 
ATOM     45  C   UNL     1      12.469  17.378  44.473  0.00  0.00    +0.000 C 
BRANCH  44  46
ATOM     46  O   UNL     1      14.011  16.726  41.960  0.00  0.00    +0.000 OA
ATOM     47  H   UNL     1      13.834  16.170  42.738  0.00  0.00    +0.000 HD
ENDBRANCH  44  46
BRANCH  43  48
ATOM     48  O   UNL     1      14.141  18.827  39.991  0.00  0.00    +0.000 OA
ATOM     49  H   UNL     1      14.629  17.985  40.006  0.00  0.00    +0.000 HD
ENDBRANCH  43  48
BRANCH  41  50
ATOM     50  O   UNL     1      13.094  20.925  41.572  0.00  0.00    +0.000 OA
ATOM     51  H   UNL     1      12.640  21.293  42.354  0.00  0.00    +0.000 HD
ENDBRANCH  41  50
ENDBRANCH  38  39
ENDBRANCH  37  38
ENDBRANCH   4  37
TORSDOF 15
ENDMDL
MODEL 2
REMARK VINA RESULT:    -6.368      2.059      5.936
REMARK INTER + INTRA:         -12.978
REMARK INTER:                 -10.853
REMARK INTRA:                  -2.125
REMARK UNBOUND:                -2.515
REMARK  Name = opt13.pdb
REMARK  17 active torsions:
REMARK  status: ('A' for Active; 'I' for Inactive)
REMARK    1  A    between atoms: C_6  and  O_10
REMARK    2  A    between atoms: C_7  and  C_12
REMARK    3  A    between atoms: C_13  and  O_16
REMARK    4  A    between atoms: O_16  and  C_19
REMARK    5  A    between atoms: C_17  and  O_20
REMARK    6  A    between atoms: C_21  and  O_24
REMARK    7  A    between atoms: C_23  and  O_26
REMARK    8  A    between atoms: O_24  and  C_28
REMARK    9  A    between atoms: C_25  and  C_30
REMARK   10  A    between atoms: C_27  and  O_31
REMARK   11  A    between atoms: C_29  and  O_32
REMARK   12  A    between atoms: C_30  and  O_33
REMARK   13  A    between atoms: O_33  and  C_34
REMARK   14  A    between atoms: C_36  and  O_38
REMARK   15  A    between atoms: C_37  and  C_41
REMARK   16  A    between atoms: C_39  and  O_42
REMARK   17  A    between atoms: C_40  and  O_43
REMARK                            x       y       z     vdW  Elec       q    Type
REMARK                         _______ _______ _______ _____ _____    ______ ____
ROOT
ATOM      1  C   UNL     1       8.655  14.652  42.234  0.00  0.00    +0.000 C 
ATOM      2  O   UNL     1       9.900  14.268  41.600  0.00  0.00    +0.000 OA
ATOM      3  C   UNL     1       7.810  13.388  42.499  0.00  0.00    +0.000 C 
ATOM      4  C   UNL     1      10.735  13.363  42.374  0.00  0.00    +0.000 C 
ATOM      5  C   UNL     1       8.617  12.310  43.264  0.00  0.00    +0.000 C 
ATOM      6  C   UNL     1       9.976  12.033  42.580  0.00  0.00    +0.000 C 
ENDROOT
BRANCH   3   7
ATOM      7  O   UNL     1       7.393  12.874  41.230  0.00  0.00    +0.000 OA
ATOM      8  H   UNL     1       8.063  13.149  40.578  0.00  0.00    +0.000 HD
ENDBRANCH   3   7
BRANCH   5   9
ATOM      9  O   UNL     1       7.847  11.108  43.291  0.00  0.00    +0.000 OA
ATOM     10  H   UNL     1       7.360  11.123  44.138  0.00  0.00    +0.000 HD
ENDBRANCH   5   9
BRANCH   6  11
ATOM     11  O   UNL     1      10.756  11.139  43.386  0.00  0.00    +0.000 OA
ATOM     12  H   UNL     1      10.629  11.357  44.328  0.00  0.00    +0.000 HD
ENDBRANCH   6  11
BRANCH   1  13
ATOM     13  O   UNL     1       8.916  15.362  43.470  0.00  0.00    +0.000 OA
BRANCH  13  24
ATOM     14  O   UNL     1      11.535  21.271  43.014  0.00  0.00    +0.000 OA
ATOM     15  C   UNL     1      11.950  20.199  43.415  0.00  0.00    +0.000 C 
ATOM     16  C   UNL     1      11.119  18.939  43.436  0.00  0.00    +0.000 A 
ATOM     17  C   UNL     1      13.359  20.113  43.956  0.00  0.00    +0.000 C 
ATOM     18  C   UNL     1      11.704  17.753  43.895  0.00  0.00    +0.000 A 
ATOM     19  C   UNL     1       9.784  18.909  43.005  0.00  0.00    +0.000 A 
ATOM     20  C   UNL     1      13.949  18.702  43.761  0.00  0.00    +0.000 C 
ATOM     21  O   UNL     1      13.024  17.731  44.303  0.00  0.00    +0.000 OA
ATOM     22  C   UNL     1      10.980  16.566  43.932  0.00  0.00    +0.000 A 
ATOM     23  C   UNL     1       9.066  17.710  43.022  0.00  0.00    +0.000 A 
ATOM     24  C   UNL     1       9.654  16.535  43.489  0.00  0.00    +0.000 A 
BRANCH  20  25
ATOM     25  C   UNL     1      15.283  18.544  44.469  0.00  0.00    +0.000 A 
ATOM     26  C   UNL     1      15.323  18.466  45.860  0.00  0.00    +0.000 A 
ATOM     27  C   UNL     1      16.472  18.505  43.746  0.00  0.00    +0.000 A 
ATOM     28  C   UNL     1      16.538  18.384  46.538  0.00  0.00    +0.000 A 
ATOM     29  C   UNL     1      17.691  18.408  44.414  0.00  0.00    +0.000 A 
ATOM     30  C   UNL     1      17.742  18.356  45.808  0.00  0.00    +0.000 A 
BRANCH  28  31
ATOM     31  O   UNL     1      16.483  18.358  47.900  0.00  0.00    +0.000 OA
ATOM     32  H   UNL     1      15.645  18.763  48.190  0.00  0.00    +0.000 HD
ENDBRANCH  28  31
BRANCH  30  33
ATOM     33  O   UNL     1      19.013  18.291  46.361  0.00  0.00    +0.000 OA
ATOM     34  C   UNL     1      20.093  17.450  45.894  0.00  0.00    +0.000 C 
ENDBRANCH  30  33
ENDBRANCH  20  25
BRANCH  19  35
ATOM     35  O   UNL     1       9.165  20.041  42.564  0.00  0.00    +0.000 OA
ATOM     36  H   UNL     1       9.678  20.375  41.789  0.00  0.00    +0.000 HD
ENDBRANCH  19  35
ENDBRANCH  13  24
ENDBRANCH   1  13
BRANCH   4  37
ATOM     37  C   UNL     1      12.053  13.168  41.610  0.00  0.00    +0.000 C 
BRANCH  37  38
ATOM     38  O   UNL     1      13.112  13.381  42.565  0.00  0.00    +0.000 OA
BRANCH  38  39
ATOM     39  C   UNL     1      14.074  12.317  42.688  0.00  0.00    +0.000 C 
ATOM     40  O   UNL     1      15.283  12.596  41.928  0.00  0.00    +0.000 OA
ATOM     41  C   UNL     1      14.426  12.198  44.184  0.00  0.00    +0.000 C 
ATOM     42  C   UNL     1      16.001  13.809  42.287  0.00  0.00    +0.000 C 
ATOM     43  C   UNL     1      15.158  13.479  44.650  0.00  0.00    +0.000 C 
ATOM     44  C   UNL     1      16.410  13.737  43.779  0.00  0.00    +0.000 C 
ATOM     45  C   UNL     1      17.225  13.918  41.357  0.00  0.00    +0.000 C 
BRANCH  44  46
ATOM     46  O   UNL     1      17.034  14.960  44.185  0.00  0.00    +0.000 OA
ATOM     47  H   UNL     1      17.994  14.808  44.246  0.00  0.00    +0.000 HD
ENDBRANCH  44  46
BRANCH  43  48
ATOM     48  O   UNL     1      15.525  13.329  46.020  0.00  0.00    +0.000 OA
ATOM     49  H   UNL     1      14.710  13.502  46.522  0.00  0.00    +0.000 HD
ENDBRANCH  43  48
BRANCH  41  50
ATOM     50  O   UNL     1      15.244  11.039  44.385  0.00  0.00    +0.000 OA
ATOM     51  H   UNL     1      15.003  10.646  45.247  0.00  0.00    +0.000 HD
ENDBRANCH  41  50
ENDBRANCH  38  39
ENDBRANCH  37  38
ENDBRANCH   4  37
TORSDOF 15
ENDMDL
MODEL 3
REMARK VINA RESULT:    -6.331      1.201      2.101
REMARK INTER + INTRA:         -12.916
REMARK INTER:                 -10.237
REMARK INTRA:                  -2.679
REMARK UNBOUND:                -2.515
REMARK  Name = opt13.pdb
REMARK  17 active torsions:
REMARK  status: ('A' for Active; 'I' for Inactive)
REMARK    1  A    between atoms: C_6  and  O_10
REMARK    2  A    between atoms: C_7  and  C_12
REMARK    3  A    between atoms: C_13  and  O_16
REMARK    4  A    between atoms: O_16  and  C_19
REMARK    5  A    between atoms: C_17  and  O_20
REMARK    6  A    between atoms: C_21  and  O_24
REMARK    7  A    between atoms: C_23  and  O_26
REMARK    8  A    between atoms: O_24  and  C_28
REMARK    9  A    between atoms: C_25  and  C_30
REMARK   10  A    between atoms: C_27  and  O_31
REMARK   11  A    between atoms: C_29  and  O_32
REMARK   12  A    between atoms: C_30  and  O_33
REMARK   13  A    between atoms: O_33  and  C_34
REMARK   14  A    between atoms: C_36  and  O_38
REMARK   15  A    between atoms: C_37  and  C_41
REMARK   16  A    between atoms: C_39  and  O_42
REMARK   17  A    between atoms: C_40  and  O_43
REMARK                            x       y       z     vdW  Elec       q    Type
REMARK                         _______ _______ _______ _____ _____    ______ ____
ROOT
ATOM      1  C   UNL     1       8.679  15.256  41.562  0.00  0.00    +0.000 C 
ATOM      2  O   UNL     1       9.229  16.496  42.072  0.00  0.00    +0.000 OA
ATOM      3  C   UNL     1       7.554  15.577  40.556  0.00  0.00    +0.000 C 
ATOM      4  C   UNL     1       9.806  17.377  41.069  0.00  0.00    +0.000 C 
ATOM      5  C   UNL     1       8.027  16.569  39.465  0.00  0.00    +0.000 C 
ATOM      6  C   UNL     1       8.695  17.817  40.090  0.00  0.00    +0.000 C 
ENDROOT
BRANCH   3   7
ATOM      7  O   UNL     1       6.466  16.146  41.293  0.00  0.00    +0.000 OA
ATOM      8  H   UNL     1       6.855  16.738  41.963  0.00  0.00    +0.000 HD
ENDBRANCH   3   7
BRANCH   5   9
ATOM      9  O   UNL     1       6.889  16.974  38.702  0.00  0.00    +0.000 OA
ATOM     10  H   UNL     1       7.237  17.543  37.988  0.00  0.00    +0.000 HD
ENDBRANCH   5   9
BRANCH   6  11
ATOM     11  O   UNL     1       9.246  18.645  39.057  0.00  0.00    +0.000 OA
ATOM     12  H   UNL     1      10.114  18.293  38.786  0.00  0.00    +0.000 HD
ENDBRANCH   6  11
BRANCH   1  13
ATOM     13  O   UNL     1       9.717  14.464  40.934  0.00  0.00    +0.000 OA
BRANCH  13  24
ATOM     14  O   UNL     1      13.457  10.556  44.501  0.00  0.00    +0.000 OA
ATOM     15  C   UNL     1      13.570  11.709  44.123  0.00  0.00    +0.000 C 
ATOM     16  C   UNL     1      12.544  12.407  43.264  0.00  0.00    +0.000 A 
ATOM     17  C   UNL     1      14.811  12.486  44.496  0.00  0.00    +0.000 C 
ATOM     18  C   UNL     1      12.761  13.743  42.907  0.00  0.00    +0.000 A 
ATOM     19  C   UNL     1      11.376  11.771  42.816  0.00  0.00    +0.000 A 
ATOM     20  C   UNL     1      14.522  13.998  44.576  0.00  0.00    +0.000 C 
ATOM     21  O   UNL     1      13.883  14.416  43.349  0.00  0.00    +0.000 OA
ATOM     22  C   UNL     1      11.843  14.430  42.118  0.00  0.00    +0.000 A 
ATOM     23  C   UNL     1      10.446  12.470  42.042  0.00  0.00    +0.000 A 
ATOM     24  C   UNL     1      10.674  13.799  41.684  0.00  0.00    +0.000 A 
BRANCH  20  25
ATOM     25  C   UNL     1      15.795  14.808  44.758  0.00  0.00    +0.000 A 
ATOM     26  C   UNL     1      17.034  14.192  44.598  0.00  0.00    +0.000 A 
ATOM     27  C   UNL     1      15.738  16.153  45.111  0.00  0.00    +0.000 A 
ATOM     28  C   UNL     1      18.217  14.895  44.820  0.00  0.00    +0.000 A 
ATOM     29  C   UNL     1      16.915  16.869  45.319  0.00  0.00    +0.000 A 
ATOM     30  C   UNL     1      18.160  16.254  45.188  0.00  0.00    +0.000 A 
BRANCH  28  31
ATOM     31  O   UNL     1      19.382  14.199  44.685  0.00  0.00    +0.000 OA
ATOM     32  H   UNL     1      19.554  14.052  43.737  0.00  0.00    +0.000 HD
ENDBRANCH  28  31
BRANCH  30  33
ATOM     33  O   UNL     1      19.260  17.059  45.451  0.00  0.00    +0.000 OA
ATOM     34  C   UNL     1      19.322  18.095  46.457  0.00  0.00    +0.000 C 
ENDBRANCH  30  33
ENDBRANCH  20  25
BRANCH  19  35
ATOM     35  O   UNL     1      11.128  10.465  43.124  0.00  0.00    +0.000 OA
ATOM     36  H   UNL     1      10.473  10.127  42.467  0.00  0.00    +0.000 HD
ENDBRANCH  19  35
ENDBRANCH  13  24
ENDBRANCH   1  13
BRANCH   4  37
ATOM     37  C   UNL     1      10.445  18.568  41.797  0.00  0.00    +0.000 C 
BRANCH  37  38
ATOM     38  O   UNL     1      11.555  18.996  40.983  0.00  0.00    +0.000 OA
BRANCH  38  39
ATOM     39  C   UNL     1      12.530  17.986  40.665  0.00  0.00    +0.000 C 
ATOM     40  O   UNL     1      13.279  18.323  39.464  0.00  0.00    +0.000 OA
ATOM     41  C   UNL     1      13.496  17.899  41.863  0.00  0.00    +0.000 C 
ATOM     42  C   UNL     1      14.017  19.576  39.498  0.00  0.00    +0.000 C 
ATOM     43  C   UNL     1      14.290  19.221  41.989  0.00  0.00    +0.000 C 
ATOM     44  C   UNL     1      15.031  19.539  40.669  0.00  0.00    +0.000 C 
ATOM     45  C   UNL     1      14.715  19.743  38.135  0.00  0.00    +0.000 C 
BRANCH  44  46
ATOM     46  O   UNL     1      15.705  20.796  40.786  0.00  0.00    +0.000 OA
ATOM     47  H   UNL     1      15.080  21.502  40.544  0.00  0.00    +0.000 HD
ENDBRANCH  44  46
BRANCH  43  48
ATOM     48  O   UNL     1      15.218  19.102  43.066  0.00  0.00    +0.000 OA
ATOM     49  H   UNL     1      16.056  18.834  42.650  0.00  0.00    +0.000 HD
ENDBRANCH  43  48
BRANCH  41  50
ATOM     50  O   UNL     1      14.381  16.787  41.675  0.00  0.00    +0.000 OA
ATOM     51  H   UNL     1      15.158  17.101  41.174  0.00  0.00    +0.000 HD
ENDBRANCH  41  50
ENDBRANCH  38  39
ENDBRANCH  37  38
ENDBRANCH   4  37
TORSDOF 15
ENDMDL
MODEL 4
REMARK VINA RESULT:    -6.303      2.750      8.716
REMARK INTER + INTRA:         -12.871
REMARK INTER:                 -10.678
REMARK INTRA:                  -2.192
REMARK UNBOUND:                -2.515
REMARK  Name = opt13.pdb
REMARK  17 active torsions:
REMARK  status: ('A' for Active; 'I' for Inactive)
REMARK    1  A    between atoms: C_6  and  O_10
REMARK    2  A    between atoms: C_7  and  C_12
REMARK    3  A    between atoms: C_13  and  O_16
REMARK    4  A    between atoms: O_16  and  C_19
REMARK    5  A    between atoms: C_17  and  O_20
REMARK    6  A    between atoms: C_21  and  O_24
REMARK    7  A    between atoms: C_23  and  O_26
REMARK    8  A    between atoms: O_24  and  C_28
REMARK    9  A    between atoms: C_25  and  C_30
REMARK   10  A    between atoms: C_27  and  O_31
REMARK   11  A    between atoms: C_29  and  O_32
REMARK   12  A    between atoms: C_30  and  O_33
REMARK   13  A    between atoms: O_33  and  C_34
REMARK   14  A    between atoms: C_36  and  O_38
REMARK   15  A    between atoms: C_37  and  C_41
REMARK   16  A    between atoms: C_39  and  O_42
REMARK   17  A    between atoms: C_40  and  O_43
REMARK                            x       y       z     vdW  Elec       q    Type
REMARK                         _______ _______ _______ _____ _____    ______ ____
ROOT
ATOM      1  C   UNL     1      12.793  19.891  44.504  0.00  0.00    +0.000 C 
ATOM      2  O   UNL     1      13.248  18.586  44.942  0.00  0.00    +0.000 OA
ATOM      3  C   UNL     1      14.018  20.776  44.194  0.00  0.00    +0.000 C 
ATOM      4  C   UNL     1      14.055  17.857  43.977  0.00  0.00    +0.000 C 
ATOM      5  C   UNL     1      14.999  20.076  43.221  0.00  0.00    +0.000 C 
ATOM      6  C   UNL     1      15.352  18.651  43.707  0.00  0.00    +0.000 C 
ENDROOT
BRANCH   3   7
ATOM      7  O   UNL     1      14.677  21.052  45.434  0.00  0.00    +0.000 OA
ATOM      8  H   UNL     1      14.465  21.974  45.670  0.00  0.00    +0.000 HD
ENDBRANCH   3   7
BRANCH   5   9
ATOM      9  O   UNL     1      16.191  20.859  43.143  0.00  0.00    +0.000 OA
ATOM     10  H   UNL     1      16.285  21.285  44.018  0.00  0.00    +0.000 HD
ENDBRANCH   5   9
BRANCH   6  11
ATOM     11  O   UNL     1      16.145  17.980  42.718  0.00  0.00    +0.000 OA
ATOM     12  H   UNL     1      16.159  17.023  42.907  0.00  0.00    +0.000 HD
ENDBRANCH   6  11
BRANCH   1  13
ATOM     13  O   UNL     1      11.944  19.764  43.338  0.00  0.00    +0.000 OA
BRANCH  13  24
ATOM     14  O   UNL     1       5.585  18.754  44.063  0.00  0.00    +0.000 OA
ATOM     15  C   UNL     1       6.536  18.015  43.887  0.00  0.00    +0.000 C 
ATOM     16  C   UNL     1       7.954  18.506  43.725  0.00  0.00    +0.000 A 
ATOM     17  C   UNL     1       6.299  16.525  43.788  0.00  0.00    +0.000 C 
ATOM     18  C   UNL     1       8.977  17.567  43.553  0.00  0.00    +0.000 A 
ATOM     19  C   UNL     1       8.287  19.869  43.751  0.00  0.00    +0.000 A 
ATOM     20  C   UNL     1       7.534  15.730  44.258  0.00  0.00    +0.000 C 
ATOM     21  O   UNL     1       8.698  16.214  43.550  0.00  0.00    +0.000 OA
ATOM     22  C   UNL     1      10.300  17.970  43.402  0.00  0.00    +0.000 A 
ATOM     23  C   UNL     1       9.620  20.270  43.621  0.00  0.00    +0.000 A 
ATOM     24  C   UNL     1      10.632  19.328  43.441  0.00  0.00    +0.000 A 
BRANCH  20  25
ATOM     25  C   UNL     1       7.386  14.243  43.984  0.00  0.00    +0.000 A 
ATOM     26  C   UNL     1       8.481  13.512  43.528  0.00  0.00    +0.000 A 
ATOM     27  C   UNL     1       6.161  13.606  44.158  0.00  0.00    +0.000 A 
ATOM     28  C   UNL     1       8.358  12.161  43.209  0.00  0.00    +0.000 A 
ATOM     29  C   UNL     1       6.031  12.251  43.857  0.00  0.00    +0.000 A 
ATOM     30  C   UNL     1       7.116  11.518  43.374  0.00  0.00    +0.000 A 
BRANCH  28  31
ATOM     31  O   UNL     1       9.470  11.538  42.726  0.00  0.00    +0.000 OA
ATOM     32  H   UNL     1      10.019  11.245  43.477  0.00  0.00    +0.000 HD
ENDBRANCH  28  31
BRANCH  30  33
ATOM     33  O   UNL     1       6.858  10.186  43.080  0.00  0.00    +0.000 OA
ATOM     34  C   UNL     1       6.830   9.103  44.039  0.00  0.00    +0.000 C 
ENDBRANCH  30  33
ENDBRANCH  20  25
BRANCH  19  35
ATOM     35  O   UNL     1       7.324  20.823  43.900  0.00  0.00    +0.000 OA
ATOM     36  H   UNL     1       6.533  20.384  44.297  0.00  0.00    +0.000 HD
ENDBRANCH  19  35
ENDBRANCH  13  24
ENDBRANCH   1  13
BRANCH   4  37
ATOM     37  C   UNL     1      14.336  16.462  44.556  0.00  0.00    +0.000 C 
BRANCH  37  38
ATOM     38  O   UNL     1      13.162  15.668  44.294  0.00  0.00    +0.000 OA
BRANCH  38  39
ATOM     39  C   UNL     1      12.968  15.262  42.927  0.00  0.00    +0.000 C 
ATOM     40  O   UNL     1      14.233  14.979  42.266  0.00  0.00    +0.000 OA
ATOM     41  C   UNL     1      12.108  13.983  42.955  0.00  0.00    +0.000 C 
ATOM     42  C   UNL     1      15.052  13.937  42.866  0.00  0.00    +0.000 C 
ATOM     43  C   UNL     1      12.903  12.835  43.623  0.00  0.00    +0.000 C 
ATOM     44  C   UNL     1      14.250  12.612  42.896  0.00  0.00    +0.000 C 
ATOM     45  C   UNL     1      16.339  13.816  42.027  0.00  0.00    +0.000 C 
BRANCH  44  46
ATOM     46  O   UNL     1      14.996  11.593  43.568  0.00  0.00    +0.000 OA
ATOM     47  H   UNL     1      15.911  11.905  43.680  0.00  0.00    +0.000 HD
ENDBRANCH  44  46
BRANCH  43  48
ATOM     48  O   UNL     1      12.115  11.647  43.589  0.00  0.00    +0.000 OA
ATOM     49  H   UNL     1      12.524  11.090  42.903  0.00  0.00    +0.000 HD
ENDBRANCH  43  48
BRANCH  41  50
ATOM     50  O   UNL     1      11.736  13.635  41.615  0.00  0.00    +0.000 OA
ATOM     51  H   UNL     1      11.331  14.422  41.201  0.00  0.00    +0.000 HD
ENDBRANCH  41  50
ENDBRANCH  38  39
ENDBRANCH  37  38
ENDBRANCH   4  37
TORSDOF 15
ENDMDL
MODEL 5
REMARK VINA RESULT:    -6.254      2.248      8.999
REMARK INTER + INTRA:         -12.790
REMARK INTER:                 -10.488
REMARK INTRA:                  -2.302
REMARK UNBOUND:                -2.515
REMARK  Name = opt13.pdb
REMARK  17 active torsions:
REMARK  status: ('A' for Active; 'I' for Inactive)
REMARK    1  A    between atoms: C_6  and  O_10
REMARK    2  A    between atoms: C_7  and  C_12
REMARK    3  A    between atoms: C_13  and  O_16
REMARK    4  A    between atoms: O_16  and  C_19
REMARK    5  A    between atoms: C_17  and  O_20
REMARK    6  A    between atoms: C_21  and  O_24
REMARK    7  A    between atoms: C_23  and  O_26
REMARK    8  A    between atoms: O_24  and  C_28
REMARK    9  A    between atoms: C_25  and  C_30
REMARK   10  A    between atoms: C_27  and  O_31
REMARK   11  A    between atoms: C_29  and  O_32
REMARK   12  A    between atoms: C_30  and  O_33
REMARK   13  A    between atoms: O_33  and  C_34
REMARK   14  A    between atoms: C_36  and  O_38
REMARK   15  A    between atoms: C_37  and  C_41
REMARK   16  A    between atoms: C_39  and  O_42
REMARK   17  A    between atoms: C_40  and  O_43
REMARK                            x       y       z     vdW  Elec       q    Type
REMARK                         _______ _______ _______ _____ _____    ______ ____
ROOT
ATOM      1  C   UNL     1      14.205  18.281  42.672  0.00  0.00    +0.000 C 
ATOM      2  O   UNL     1      14.485  17.250  43.651  0.00  0.00    +0.000 OA
ATOM      3  C   UNL     1      15.466  19.150  42.478  0.00  0.00    +0.000 C 
ATOM      4  C   UNL     1      15.567  16.343  43.303  0.00  0.00    +0.000 C 
ATOM      5  C   UNL     1      16.714  18.287  42.166  0.00  0.00    +0.000 C 
ATOM      6  C   UNL     1      16.882  17.147  43.198  0.00  0.00    +0.000 C 
ENDROOT
BRANCH   3   7
ATOM      7  O   UNL     1      15.673  19.886  43.687  0.00  0.00    +0.000 OA
ATOM      8  H   UNL     1      16.585  19.703  43.980  0.00  0.00    +0.000 HD
ENDBRANCH   3   7
BRANCH   5   9
ATOM      9  O   UNL     1      17.865  19.132  42.203  0.00  0.00    +0.000 OA
ATOM     10  H   UNL     1      17.942  19.514  41.307  0.00  0.00    +0.000 HD
ENDBRANCH   5   9
BRANCH   6  11
ATOM     11  O   UNL     1      17.958  16.285  42.804  0.00  0.00    +0.000 OA
ATOM     12  H   UNL     1      18.267  16.538  41.914  0.00  0.00    +0.000 HD
ENDBRANCH   6  11
BRANCH   1  13
ATOM     13  O   UNL     1      13.795  17.686  41.417  0.00  0.00    +0.000 OA
BRANCH  13  24
ATOM     14  O   UNL     1       7.691  18.259  39.320  0.00  0.00    +0.000 OA
ATOM     15  C   UNL     1       8.265  17.439  40.013  0.00  0.00    +0.000 C 
ATOM     16  C   UNL     1       9.734  17.518  40.353  0.00  0.00    +0.000 A 
ATOM     17  C   UNL     1       7.491  16.253  40.542  0.00  0.00    +0.000 C 
ATOM     18  C   UNL     1      10.288  16.535  41.179  0.00  0.00    +0.000 A 
ATOM     19  C   UNL     1      10.563  18.547  39.878  0.00  0.00    +0.000 A 
ATOM     20  C   UNL     1       8.086  15.744  41.870  0.00  0.00    +0.000 C 
ATOM     21  O   UNL     1       9.503  15.521  41.691  0.00  0.00    +0.000 OA
ATOM     22  C   UNL     1      11.637  16.566  41.523  0.00  0.00    +0.000 A 
ATOM     23  C   UNL     1      11.911  18.588  40.242  0.00  0.00    +0.000 A 
ATOM     24  C   UNL     1      12.458  17.598  41.060  0.00  0.00    +0.000 A 
BRANCH  20  25
ATOM     25  C   UNL     1       7.444  14.441  42.314  0.00  0.00    +0.000 A 
ATOM     26  C   UNL     1       7.229  13.425  41.385  0.00  0.00    +0.000 A 
ATOM     27  C   UNL     1       7.040  14.259  43.634  0.00  0.00    +0.000 A 
ATOM     28  C   UNL     1       6.586  12.244  41.751  0.00  0.00    +0.000 A 
ATOM     29  C   UNL     1       6.410  13.076  44.013  0.00  0.00    +0.000 A 
ATOM     30  C   UNL     1       6.167  12.064  43.084  0.00  0.00    +0.000 A 
BRANCH  28  31
ATOM     31  O   UNL     1       6.378  11.324  40.766  0.00  0.00    +0.000 OA
ATOM     32  H   UNL     1       7.237  10.953  40.494  0.00  0.00    +0.000 HD
ENDBRANCH  28  31
BRANCH  30  33
ATOM     33  O   UNL     1       5.506  10.945  43.571  0.00  0.00    +0.000 OA
ATOM     34  C   UNL     1       6.096   9.641  43.776  0.00  0.00    +0.000 C 
ENDBRANCH  30  33
ENDBRANCH  20  25
BRANCH  19  35
ATOM     35  O   UNL     1      10.073  19.519  39.057  0.00  0.00    +0.000 OA
ATOM     36  H   UNL     1      10.624  20.326  39.194  0.00  0.00    +0.000 HD
ENDBRANCH  19  35
ENDBRANCH  13  24
ENDBRANCH   1  13
BRANCH   4  37
ATOM     37  C   UNL     1      15.636  15.253  44.384  0.00  0.00    +0.000 C 
BRANCH  37  38
ATOM     38  O   UNL     1      14.274  14.880  44.672  0.00  0.00    +0.000 OA
BRANCH  38  39
ATOM     39  C   UNL     1      14.039  13.478  44.901  0.00  0.00    +0.000 C 
ATOM     40  O   UNL     1      12.618  13.170  44.931  0.00  0.00    +0.000 OA
ATOM     41  C   UNL     1      14.704  12.713  43.739  0.00  0.00    +0.000 C 
ATOM     42  C   UNL     1      11.865  13.497  43.729  0.00  0.00    +0.000 C 
ATOM     43  C   UNL     1      13.980  13.047  42.414  0.00  0.00    +0.000 C 
ATOM     44  C   UNL     1      12.469  12.732  42.525  0.00  0.00    +0.000 C 
ATOM     45  C   UNL     1      10.395  13.109  43.981  0.00  0.00    +0.000 C 
BRANCH  44  46
ATOM     46  O   UNL     1      11.809  13.109  41.313  0.00  0.00    +0.000 OA
ATOM     47  H   UNL     1      11.004  12.569  41.222  0.00  0.00    +0.000 HD
ENDBRANCH  44  46
BRANCH  43  48
ATOM     48  O   UNL     1      14.571  12.290  41.360  0.00  0.00    +0.000 OA
ATOM     49  H   UNL     1      15.531  12.391  41.483  0.00  0.00    +0.000 HD
ENDBRANCH  43  48
BRANCH  41  50
ATOM     50  O   UNL     1      14.654  11.307  44.010  0.00  0.00    +0.000 OA
ATOM     51  H   UNL     1      15.263  11.121  44.751  0.00  0.00    +0.000 HD
ENDBRANCH  41  50
ENDBRANCH  38  39
ENDBRANCH  37  38
ENDBRANCH   4  37
TORSDOF 15
ENDMDL
MODEL 6
REMARK VINA RESULT:    -6.226      2.597      8.757
REMARK INTER + INTRA:         -12.745
REMARK INTER:                 -10.077
REMARK INTRA:                  -2.668
REMARK UNBOUND:                -2.515
REMARK  Name = opt13.pdb
REMARK  17 active torsions:
REMARK  status: ('A' for Active; 'I' for Inactive)
REMARK    1  A    between atoms: C_6  and  O_10
REMARK    2  A    between atoms: C_7  and  C_12
REMARK    3  A    between atoms: C_13  and  O_16
REMARK    4  A    between atoms: O_16  and  C_19
REMARK    5  A    between atoms: C_17  and  O_20
REMARK    6  A    between atoms: C_21  and  O_24
REMARK    7  A    between atoms: C_23  and  O_26
REMARK    8  A    between atoms: O_24  and  C_28
REMARK    9  A    between atoms: C_25  and  C_30
REMARK   10  A    between atoms: C_27  and  O_31
REMARK   11  A    between atoms: C_29  and  O_32
REMARK   12  A    between atoms: C_30  and  O_33
REMARK   13  A    between atoms: O_33  and  C_34
REMARK   14  A    between atoms: C_36  and  O_38
REMARK   15  A    between atoms: C_37  and  C_41
REMARK   16  A    between atoms: C_39  and  O_42
REMARK   17  A    between atoms: C_40  and  O_43
REMARK                            x       y       z     vdW  Elec       q    Type
REMARK                         _______ _______ _______ _____ _____    ______ ____
ROOT
ATOM      1  C   UNL     1      16.040  19.436  41.054  0.00  0.00    +0.000 C 
ATOM      2  O   UNL     1      16.700  19.049  42.285  0.00  0.00    +0.000 OA
ATOM      3  C   UNL     1      17.096  19.574  39.936  0.00  0.00    +0.000 C 
ATOM      4  C   UNL     1      17.419  17.786  42.231  0.00  0.00    +0.000 C 
ATOM      5  C   UNL     1      17.980  18.307  39.823  0.00  0.00    +0.000 C 
ATOM      6  C   UNL     1      18.561  17.902  41.198  0.00  0.00    +0.000 C 
ENDROOT
BRANCH   3   7
ATOM      7  O   UNL     1      17.910  20.709  40.250  0.00  0.00    +0.000 OA
ATOM      8  H   UNL     1      17.508  21.142  41.026  0.00  0.00    +0.000 HD
ENDBRANCH   3   7
BRANCH   5   9
ATOM      9  O   UNL     1      19.051  18.586  38.921  0.00  0.00    +0.000 OA
ATOM     10  H   UNL     1      18.670  19.158  38.226  0.00  0.00    +0.000 HD
ENDBRANCH   5   9
BRANCH   6  11
ATOM     11  O   UNL     1      19.255  16.652  41.086  0.00  0.00    +0.000 OA
ATOM     12  H   UNL     1      18.937  16.041  41.776  0.00  0.00    +0.000 HD
ENDBRANCH   6  11
BRANCH   1  13
ATOM     13  O   UNL     1      15.035  18.458  40.691  0.00  0.00    +0.000 OA
BRANCH  13  24
ATOM     14  O   UNL     1       9.360  19.490  43.641  0.00  0.00    +0.000 OA
ATOM     15  C   UNL     1       9.927  18.489  43.243  0.00  0.00    +0.000 C 
ATOM     16  C   UNL     1      11.270  18.511  42.553  0.00  0.00    +0.000 A 
ATOM     17  C   UNL     1       9.252  17.146  43.410  0.00  0.00    +0.000 C 
ATOM     18  C   UNL     1      11.845  17.298  42.159  0.00  0.00    +0.000 A 
ATOM     19  C   UNL     1      11.968  19.702  42.301  0.00  0.00    +0.000 A 
ATOM     20  C   UNL     1      10.288  16.010  43.525  0.00  0.00    +0.000 C 
ATOM     21  O   UNL     1      11.206  16.100  42.413  0.00  0.00    +0.000 OA
ATOM     22  C   UNL     1      13.082  17.267  41.522  0.00  0.00    +0.000 A 
ATOM     23  C   UNL     1      13.220  19.667  41.681  0.00  0.00    +0.000 A 
ATOM     24  C   UNL     1      13.782  18.454  41.283  0.00  0.00    +0.000 A 
BRANCH  20  25
ATOM     25  C   UNL     1       9.629  14.641  43.498  0.00  0.00    +0.000 A 
ATOM     26  C   UNL     1      10.340  13.542  43.019  0.00  0.00    +0.000 A 
ATOM     27  C   UNL     1       8.313  14.476  43.920  0.00  0.00    +0.000 A 
ATOM     28  C   UNL     1       9.740  12.288  42.924  0.00  0.00    +0.000 A 
ATOM     29  C   UNL     1       7.710  13.222  43.844  0.00  0.00    +0.000 A 
ATOM     30  C   UNL     1       8.405  12.121  43.341  0.00  0.00    +0.000 A 
BRANCH  28  31
ATOM     31  O   UNL     1      10.497  11.280  42.401  0.00  0.00    +0.000 OA
ATOM     32  H   UNL     1      11.432  11.553  42.407  0.00  0.00    +0.000 HD
ENDBRANCH  28  31
BRANCH  30  33
ATOM     33  O   UNL     1       7.691  10.932  43.285  0.00  0.00    +0.000 OA
ATOM     34  C   UNL     1       6.255  10.807  43.403  0.00  0.00    +0.000 C 
ENDBRANCH  30  33
ENDBRANCH  20  25
BRANCH  19  35
ATOM     35  O   UNL     1      11.441  20.911  42.652  0.00  0.00    +0.000 OA
ATOM     36  H   UNL     1      11.910  21.601  42.124  0.00  0.00    +0.000 HD
ENDBRANCH  19  35
ENDBRANCH  13  24
ENDBRANCH   1  13
BRANCH   4  37
ATOM     37  C   UNL     1      17.940  17.479  43.644  0.00  0.00    +0.000 C 
BRANCH  37  38
ATOM     38  O   UNL     1      17.750  16.066  43.850  0.00  0.00    +0.000 OA
BRANCH  38  39
ATOM     39  C   UNL     1      17.260  15.677  45.147  0.00  0.00    +0.000 C 
ATOM     40  O   UNL     1      16.035  16.383  45.491  0.00  0.00    +0.000 OA
ATOM     41  C   UNL     1      16.978  14.163  45.088  0.00  0.00    +0.000 C 
ATOM     42  C   UNL     1      14.913  16.202  44.583  0.00  0.00    +0.000 C 
ATOM     43  C   UNL     1      15.817  13.887  44.103  0.00  0.00    +0.000 C 
ATOM     44  C   UNL     1      14.560  14.695  44.504  0.00  0.00    +0.000 C 
ATOM     45  C   UNL     1      13.738  17.042  45.121  0.00  0.00    +0.000 C 
BRANCH  44  46
ATOM     46  O   UNL     1      13.521  14.476  43.544  0.00  0.00    +0.000 OA
ATOM     47  H   UNL     1      12.675  14.749  43.940  0.00  0.00    +0.000 HD
ENDBRANCH  44  46
BRANCH  43  48
ATOM     48  O   UNL     1      15.533  12.490  44.104  0.00  0.00    +0.000 OA
ATOM     49  H   UNL     1      15.031  12.333  44.923  0.00  0.00    +0.000 HD
ENDBRANCH  43  48
BRANCH  41  50
ATOM     50  O   UNL     1      16.657  13.692  46.403  0.00  0.00    +0.000 OA
ATOM     51  H   UNL     1      15.951  14.263  46.763  0.00  0.00    +0.000 HD
ENDBRANCH  41  50
ENDBRANCH  38  39
ENDBRANCH  37  38
ENDBRANCH   4  37
TORSDOF 15
ENDMDL
MODEL 7
REMARK VINA RESULT:    -6.188      2.210      3.497
REMARK INTER + INTRA:         -12.682
REMARK INTER:                 -10.210
REMARK INTRA:                  -2.472
REMARK UNBOUND:                -2.515
REMARK  Name = opt13.pdb
REMARK  17 active torsions:
REMARK  status: ('A' for Active; 'I' for Inactive)
REMARK    1  A    between atoms: C_6  and  O_10
REMARK    2  A    between atoms: C_7  and  C_12
REMARK    3  A    between atoms: C_13  and  O_16
REMARK    4  A    between atoms: O_16  and  C_19
REMARK    5  A    between atoms: C_17  and  O_20
REMARK    6  A    between atoms: C_21  and  O_24
REMARK    7  A    between atoms: C_23  and  O_26
REMARK    8  A    between atoms: O_24  and  C_28
REMARK    9  A    between atoms: C_25  and  C_30
REMARK   10  A    between atoms: C_27  and  O_31
REMARK   11  A    between atoms: C_29  and  O_32
REMARK   12  A    between atoms: C_30  and  O_33
REMARK   13  A    between atoms: O_33  and  C_34
REMARK   14  A    between atoms: C_36  and  O_38
REMARK   15  A    between atoms: C_37  and  C_41
REMARK   16  A    between atoms: C_39  and  O_42
REMARK   17  A    between atoms: C_40  and  O_43
REMARK                            x       y       z     vdW  Elec       q    Type
REMARK                         _______ _______ _______ _____ _____    ______ ____
ROOT
ATOM      1  C   UNL     1       9.587  13.971  44.330  0.00  0.00    +0.000 C 
ATOM      2  O   UNL     1       9.420  14.745  43.117  0.00  0.00    +0.000 OA
ATOM      3  C   UNL     1       8.256  13.266  44.669  0.00  0.00    +0.000 C 
ATOM      4  C   UNL     1       9.044  13.978  41.940  0.00  0.00    +0.000 C 
ATOM      5  C   UNL     1       7.711  12.463  43.462  0.00  0.00    +0.000 C 
ATOM      6  C   UNL     1       7.662  13.332  42.183  0.00  0.00    +0.000 C 
ENDROOT
BRANCH   3   7
ATOM      7  O   UNL     1       7.316  14.278  45.045  0.00  0.00    +0.000 OA
ATOM      8  H   UNL     1       7.731  15.139  44.850  0.00  0.00    +0.000 HD
ENDBRANCH   3   7
BRANCH   5   9
ATOM      9  O   UNL     1       6.393  12.015  43.780  0.00  0.00    +0.000 OA
ATOM     10  H   UNL     1       5.909  12.807  44.085  0.00  0.00    +0.000 HD
ENDBRANCH   5   9
BRANCH   6  11
ATOM     11  O   UNL     1       7.289  12.525  41.058  0.00  0.00    +0.000 OA
ATOM     12  H   UNL     1       7.318  11.583  41.310  0.00  0.00    +0.000 HD
ENDBRANCH   6  11
BRANCH   1  13
ATOM     13  O   UNL     1      10.653  13.003  44.169  0.00  0.00    +0.000 OA
BRANCH  13  24
ATOM     14  O   UNL     1      16.691  13.920  42.005  0.00  0.00    +0.000 OA
ATOM     15  C   UNL     1      16.002  14.488  42.834  0.00  0.00    +0.000 C 
ATOM     16  C   UNL     1      14.583  14.086  43.153  0.00  0.00    +0.000 A 
ATOM     17  C   UNL     1      16.570  15.682  43.566  0.00  0.00    +0.000 C 
ATOM     18  C   UNL     1      13.889  14.793  44.142  0.00  0.00    +0.000 A 
ATOM     19  C   UNL     1      13.935  13.025  42.503  0.00  0.00    +0.000 A 
ATOM     20  C   UNL     1      15.937  15.834  44.964  0.00  0.00    +0.000 C 
ATOM     21  O   UNL     1      14.498  15.826  44.827  0.00  0.00    +0.000 OA
ATOM     22  C   UNL     1      12.579  14.458  44.474  0.00  0.00    +0.000 A 
ATOM     23  C   UNL     1      12.627  12.677  42.853  0.00  0.00    +0.000 A 
ATOM     24  C   UNL     1      11.941  13.393  43.834  0.00  0.00    +0.000 A 
BRANCH  20  25
ATOM     25  C   UNL     1      16.351  17.134  45.633  0.00  0.00    +0.000 A 
ATOM     26  C   UNL     1      15.814  18.341  45.191  0.00  0.00    +0.000 A 
ATOM     27  C   UNL     1      17.284  17.136  46.666  0.00  0.00    +0.000 A 
ATOM     28  C   UNL     1      16.223  19.552  45.745  0.00  0.00    +0.000 A 
ATOM     29  C   UNL     1      17.687  18.341  47.238  0.00  0.00    +0.000 A 
ATOM     30  C   UNL     1      17.175  19.557  46.783  0.00  0.00    +0.000 A 
BRANCH  28  31
ATOM     31  O   UNL     1      15.678  20.686  45.219  0.00  0.00    +0.000 OA
ATOM     32  H   UNL     1      16.277  21.036  44.534  0.00  0.00    +0.000 HD
ENDBRANCH  28  31
BRANCH  30  33
ATOM     33  O   UNL     1      17.674  20.692  47.407  0.00  0.00    +0.000 OA
ATOM     34  C   UNL     1      18.430  20.710  48.640  0.00  0.00    +0.000 C 
ENDBRANCH  30  33
ENDBRANCH  20  25
BRANCH  19  35
ATOM     35  O   UNL     1      14.564  12.317  41.521  0.00  0.00    +0.000 OA
ATOM     36  H   UNL     1      14.676  12.921  40.748  0.00  0.00    +0.000 HD
ENDBRANCH  19  35
ENDBRANCH  13  24
ENDBRANCH   1  13
BRANCH   4  37
ATOM     37  C   UNL     1       9.037  14.933  40.737  0.00  0.00    +0.000 C 
BRANCH  37  38
ATOM     38  O   UNL     1      10.381  15.438  40.610  0.00  0.00    +0.000 OA
BRANCH  38  39
ATOM     39  C   UNL     1      10.503  16.803  40.168  0.00  0.00    +0.000 C 
ATOM     40  O   UNL     1       9.891  17.728  41.110  0.00  0.00    +0.000 OA
ATOM     41  C   UNL     1      12.010  17.108  40.057  0.00  0.00    +0.000 C 
ATOM     42  C   UNL     1      10.423  17.711  42.464  0.00  0.00    +0.000 C 
ATOM     43  C   UNL     1      12.655  17.065  41.463  0.00  0.00    +0.000 C 
ATOM     44  C   UNL     1      11.936  18.042  42.422  0.00  0.00    +0.000 C 
ATOM     45  C   UNL     1       9.628  18.742  43.289  0.00  0.00    +0.000 C 
BRANCH  44  46
ATOM     46  O   UNL     1      12.505  17.938  43.731  0.00  0.00    +0.000 OA
ATOM     47  H   UNL     1      12.673  18.836  44.065  0.00  0.00    +0.000 HD
ENDBRANCH  44  46
BRANCH  43  48
ATOM     48  O   UNL     1      14.035  17.404  41.348  0.00  0.00    +0.000 OA
ATOM     49  H   UNL     1      14.510  16.704  41.831  0.00  0.00    +0.000 HD
ENDBRANCH  43  48
BRANCH  41  50
ATOM     50  O   UNL     1      12.187  18.395  39.452  0.00  0.00    +0.000 OA
ATOM     51  H   UNL     1      11.627  19.034  39.935  0.00  0.00    +0.000 HD
ENDBRANCH  41  50
ENDBRANCH  38  39
ENDBRANCH  37  38
ENDBRANCH   4  37
TORSDOF 15
ENDMDL
MODEL 8
REMARK VINA RESULT:    -6.066      1.676      8.052
REMARK INTER + INTRA:         -12.482
REMARK INTER:                  -9.819
REMARK INTRA:                  -2.663
REMARK UNBOUND:                -2.515
REMARK  Name = opt13.pdb
REMARK  17 active torsions:
REMARK  status: ('A' for Active; 'I' for Inactive)
REMARK    1  A    between atoms: C_6  and  O_10
REMARK    2  A    between atoms: C_7  and  C_12
REMARK    3  A    between atoms: C_13  and  O_16
REMARK    4  A    between atoms: O_16  and  C_19
REMARK    5  A    between atoms: C_17  and  O_20
REMARK    6  A    between atoms: C_21  and  O_24
REMARK    7  A    between atoms: C_23  and  O_26
REMARK    8  A    between atoms: O_24  and  C_28
REMARK    9  A    between atoms: C_25  and  C_30
REMARK   10  A    between atoms: C_27  and  O_31
REMARK   11  A    between atoms: C_29  and  O_32
REMARK   12  A    between atoms: C_30  and  O_33
REMARK   13  A    between atoms: O_33  and  C_34
REMARK   14  A    between atoms: C_36  and  O_38
REMARK   15  A    between atoms: C_37  and  C_41
REMARK   16  A    between atoms: C_39  and  O_42
REMARK   17  A    between atoms: C_40  and  O_43
REMARK                            x       y       z     vdW  Elec       q    Type
REMARK                         _______ _______ _______ _____ _____    ______ ____
ROOT
ATOM      1  C   UNL     1      17.082  15.883  43.894  0.00  0.00    +0.000 C 
ATOM      2  O   UNL     1      16.500  17.197  44.087  0.00  0.00    +0.000 OA
ATOM      3  C   UNL     1      18.615  15.983  44.034  0.00  0.00    +0.000 C 
ATOM      4  C   UNL     1      16.762  17.805  45.382  0.00  0.00    +0.000 C 
ATOM      5  C   UNL     1      19.025  16.681  45.354  0.00  0.00    +0.000 C 
ATOM      6  C   UNL     1      18.282  18.026  45.534  0.00  0.00    +0.000 C 
ENDROOT
BRANCH   3   7
ATOM      7  O   UNL     1      19.103  16.732  42.916  0.00  0.00    +0.000 OA
ATOM      8  H   UNL     1      18.324  17.030  42.411  0.00  0.00    +0.000 HD
ENDBRANCH   3   7
BRANCH   5   9
ATOM      9  O   UNL     1      20.433  16.919  45.318  0.00  0.00    +0.000 OA
ATOM     10  H   UNL     1      20.551  17.731  44.786  0.00  0.00    +0.000 HD
ENDBRANCH   5   9
BRANCH   6  11
ATOM     11  O   UNL     1      18.576  18.577  46.825  0.00  0.00    +0.000 OA
ATOM     12  H   UNL     1      17.757  18.618  47.354  0.00  0.00    +0.000 HD
ENDBRANCH   6  11
BRANCH   1  13
ATOM     13  O   UNL     1      16.539  14.945  44.854  0.00  0.00    +0.000 OA
BRANCH  13  24
ATOM     14  O   UNL     1      12.162  10.350  43.548  0.00  0.00    +0.000 OA
ATOM     15  C   UNL     1      12.144  11.566  43.486  0.00  0.00    +0.000 C 
ATOM     16  C   UNL     1      13.315  12.437  43.873  0.00  0.00    +0.000 A 
ATOM     17  C   UNL     1      10.879  12.261  43.034  0.00  0.00    +0.000 C 
ATOM     18  C   UNL     1      13.196  13.825  43.740  0.00  0.00    +0.000 A 
ATOM     19  C   UNL     1      14.522  11.907  44.353  0.00  0.00    +0.000 A 
ATOM     20  C   UNL     1      11.193  13.613  42.363  0.00  0.00    +0.000 C 
ATOM     21  O   UNL     1      12.035  14.388  43.246  0.00  0.00    +0.000 OA
ATOM     22  C   UNL     1      14.248  14.669  44.082  0.00  0.00    +0.000 A 
ATOM     23  C   UNL     1      15.585  12.755  44.674  0.00  0.00    +0.000 A 
ATOM     24  C   UNL     1      15.455  14.138  44.546  0.00  0.00    +0.000 A 
BRANCH  20  25
ATOM     25  C   UNL     1       9.930  14.408  42.078  0.00  0.00    +0.000 A 
ATOM     26  C   UNL     1       8.821  14.266  42.910  0.00  0.00    +0.000 A 
ATOM     27  C   UNL     1       9.858  15.259  40.979  0.00  0.00    +0.000 A 
ATOM     28  C   UNL     1       7.630  14.935  42.637  0.00  0.00    +0.000 A 
ATOM     29  C   UNL     1       8.676  15.945  40.706  0.00  0.00    +0.000 A 
ATOM     30  C   UNL     1       7.552  15.788  41.518  0.00  0.00    +0.000 A 
BRANCH  28  31
ATOM     31  O   UNL     1       6.584  14.700  43.479  0.00  0.00    +0.000 OA
ATOM     32  H   UNL     1       6.384  15.518  43.970  0.00  0.00    +0.000 HD
ENDBRANCH  28  31
BRANCH  30  33
ATOM     33  O   UNL     1       6.424  16.498  41.129  0.00  0.00    +0.000 OA
ATOM     34  C   UNL     1       5.540  16.143  40.042  0.00  0.00    +0.000 C 
ENDBRANCH  30  33
ENDBRANCH  20  25
BRANCH  19  35
ATOM     35  O   UNL     1      14.681  10.562  44.515  0.00  0.00    +0.000 OA
ATOM     36  H   UNL     1      14.101  10.114  43.854  0.00  0.00    +0.000 HD
ENDBRANCH  19  35
ENDBRANCH  13  24
ENDBRANCH   1  13
BRANCH   4  37
ATOM     37  C   UNL     1      15.972  19.120  45.454  0.00  0.00    +0.000 C 
BRANCH  37  38
ATOM     38  O   UNL     1      14.579  18.765  45.347  0.00  0.00    +0.000 OA
BRANCH  38  39
ATOM     39  C   UNL     1      13.746  19.688  44.620  0.00  0.00    +0.000 C 
ATOM     40  O   UNL     1      14.197  19.850  43.247  0.00  0.00    +0.000 OA
ATOM     41  C   UNL     1      12.318  19.108  44.626  0.00  0.00    +0.000 C 
ATOM     42  C   UNL     1      14.233  18.642  42.436  0.00  0.00    +0.000 C 
ATOM     43  C   UNL     1      12.288  17.791  43.814  0.00  0.00    +0.000 C 
ATOM     44  C   UNL     1      12.813  18.025  42.378  0.00  0.00    +0.000 C 
ATOM     45  C   UNL     1      14.751  19.035  41.039  0.00  0.00    +0.000 C 
BRANCH  44  46
ATOM     46  O   UNL     1      12.838  16.783  41.667  0.00  0.00    +0.000 OA
ATOM     47  H   UNL     1      12.031  16.287  41.887  0.00  0.00    +0.000 HD
ENDBRANCH  44  46
BRANCH  43  48
ATOM     48  O   UNL     1      10.951  17.298  43.782  0.00  0.00    +0.000 OA
ATOM     49  H   UNL     1      10.394  18.084  43.642  0.00  0.00    +0.000 HD
ENDBRANCH  43  48
BRANCH  41  50
ATOM     50  O   UNL     1      11.416  20.072  44.070  0.00  0.00    +0.000 OA
ATOM     51  H   UNL     1      10.955  20.515  44.809  0.00  0.00    +0.000 HD
ENDBRANCH  41  50
ENDBRANCH  38  39
ENDBRANCH  37  38
ENDBRANCH   4  37
TORSDOF 15
ENDMDL
MODEL 9
REMARK VINA RESULT:    -6.059      0.861      1.237
REMARK INTER + INTRA:         -12.469
REMARK INTER:                  -9.905
REMARK INTRA:                  -2.564
REMARK UNBOUND:                -2.515
REMARK  Name = opt13.pdb
REMARK  17 active torsions:
REMARK  status: ('A' for Active; 'I' for Inactive)
REMARK    1  A    between atoms: C_6  and  O_10
REMARK    2  A    between atoms: C_7  and  C_12
REMARK    3  A    between atoms: C_13  and  O_16
REMARK    4  A    between atoms: O_16  and  C_19
REMARK    5  A    between atoms: C_17  and  O_20
REMARK    6  A    between atoms: C_21  and  O_24
REMARK    7  A    between atoms: C_23  and  O_26
REMARK    8  A    between atoms: O_24  and  C_28
REMARK    9  A    between atoms: C_25  and  C_30
REMARK   10  A    between atoms: C_27  and  O_31
REMARK   11  A    between atoms: C_29  and  O_32
REMARK   12  A    between atoms: C_30  and  O_33
REMARK   13  A    between atoms: O_33  and  C_34
REMARK   14  A    between atoms: C_36  and  O_38
REMARK   15  A    between atoms: C_37  and  C_41
REMARK   16  A    between atoms: C_39  and  O_42
REMARK   17  A    between atoms: C_40  and  O_43
REMARK                            x       y       z     vdW  Elec       q    Type
REMARK                         _______ _______ _______ _____ _____    ______ ____
ROOT
ATOM      1  C   UNL     1       8.535  14.748  42.189  0.00  0.00    +0.000 C 
ATOM      2  O   UNL     1       8.598  16.134  42.610  0.00  0.00    +0.000 OA
ATOM      3  C   UNL     1       7.299  14.550  41.286  0.00  0.00    +0.000 C 
ATOM      4  C   UNL     1       8.709  17.104  41.533  0.00  0.00    +0.000 C 
ATOM      5  C   UNL     1       7.266  15.578  40.128  0.00  0.00    +0.000 C 
ATOM      6  C   UNL     1       7.443  17.022  40.652  0.00  0.00    +0.000 C 
ENDROOT
BRANCH   3   7
ATOM      7  O   UNL     1       6.136  14.702  42.106  0.00  0.00    +0.000 OA
ATOM      8  H   UNL     1       6.438  14.688  43.033  0.00  0.00    +0.000 HD
ENDBRANCH   3   7
BRANCH   5   9
ATOM      9  O   UNL     1       6.005  15.467  39.465  0.00  0.00    +0.000 OA
ATOM     10  H   UNL     1       5.632  14.609  39.748  0.00  0.00    +0.000 HD
ENDBRANCH   5   9
BRANCH   6  11
ATOM     11  O   UNL     1       7.549  17.933  39.549  0.00  0.00    +0.000 OA
ATOM     12  H   UNL     1       6.935  18.678  39.683  0.00  0.00    +0.000 HD
ENDBRANCH   6  11
BRANCH   1  13
ATOM     13  O   UNL     1       9.747  14.378  41.488  0.00  0.00    +0.000 OA
BRANCH  13  24
ATOM     14  O   UNL     1      13.785  10.300  44.495  0.00  0.00    +0.000 OA
ATOM     15  C   UNL     1      13.856  11.477  44.191  0.00  0.00    +0.000 C 
ATOM     16  C   UNL     1      12.761  12.215  43.458  0.00  0.00    +0.000 A 
ATOM     17  C   UNL     1      15.112  12.248  44.527  0.00  0.00    +0.000 C 
ATOM     18  C   UNL     1      12.935  13.576  43.180  0.00  0.00    +0.000 A 
ATOM     19  C   UNL     1      11.572  11.591  43.053  0.00  0.00    +0.000 A 
ATOM     20  C   UNL     1      14.811  13.746  44.732  0.00  0.00    +0.000 C 
ATOM     21  O   UNL     1      14.078  14.236  43.586  0.00  0.00    +0.000 OA
ATOM     22  C   UNL     1      11.954  14.299  42.509  0.00  0.00    +0.000 A 
ATOM     23  C   UNL     1      10.579  12.325  42.399  0.00  0.00    +0.000 A 
ATOM     24  C   UNL     1      10.764  13.679  42.119  0.00  0.00    +0.000 A 
BRANCH  20  25
ATOM     25  C   UNL     1      16.083  14.563  44.877  0.00  0.00    +0.000 A 
ATOM     26  C   UNL     1      16.103  15.666  45.730  0.00  0.00    +0.000 A 
ATOM     27  C   UNL     1      17.223  14.241  44.148  0.00  0.00    +0.000 A 
ATOM     28  C   UNL     1      17.236  16.470  45.835  0.00  0.00    +0.000 A 
ATOM     29  C   UNL     1      18.367  15.029  44.258  0.00  0.00    +0.000 A 
ATOM     30  C   UNL     1      18.387  16.150  45.088  0.00  0.00    +0.000 A 
BRANCH  28  31
ATOM     31  O   UNL     1      17.149  17.553  46.658  0.00  0.00    +0.000 OA
ATOM     32  H   UNL     1      18.045  17.798  46.954  0.00  0.00    +0.000 HD
ENDBRANCH  28  31
BRANCH  30  33
ATOM     33  O   UNL     1      19.571  16.875  45.093  0.00  0.00    +0.000 OA
ATOM     34  C   UNL     1      20.006  17.782  44.053  0.00  0.00    +0.000 C 
ENDBRANCH  30  33
ENDBRANCH  20  25
BRANCH  19  35
ATOM     35  O   UNL     1      11.362  10.263  43.287  0.00  0.00    +0.000 OA
ATOM     36  H   UNL     1      10.734  10.193  44.045  0.00  0.00    +0.000 HD
ENDBRANCH  19  35
ENDBRANCH  13  24
ENDBRANCH   1  13
BRANCH   4  37
ATOM     37  C   UNL     1       8.891  18.492  42.164  0.00  0.00    +0.000 C 
BRANCH  37  38
ATOM     38  O   UNL     1      10.020  18.390  43.054  0.00  0.00    +0.000 OA
BRANCH  38  39
ATOM     39  C   UNL     1      10.949  19.490  43.023  0.00  0.00    +0.000 C 
ATOM     40  O   UNL     1      11.881  19.436  44.139  0.00  0.00    +0.000 OA
ATOM     41  C   UNL     1      11.730  19.384  41.698  0.00  0.00    +0.000 C 
ATOM     42  C   UNL     1      12.703  18.239  44.232  0.00  0.00    +0.000 C 
ATOM     43  C   UNL     1      12.599  18.103  41.707  0.00  0.00    +0.000 C 
ATOM     44  C   UNL     1      13.538  18.092  42.935  0.00  0.00    +0.000 C 
ATOM     45  C   UNL     1      13.594  18.382  45.481  0.00  0.00    +0.000 C 
BRANCH  44  46
ATOM     46  O   UNL     1      14.285  16.871  42.959  0.00  0.00    +0.000 OA
ATOM     47  H   UNL     1      14.384  16.590  43.886  0.00  0.00    +0.000 HD
ENDBRANCH  44  46
BRANCH  43  48
ATOM     48  O   UNL     1      13.356  18.050  40.500  0.00  0.00    +0.000 OA
ATOM     49  H   UNL     1      13.338  17.115  40.229  0.00  0.00    +0.000 HD
ENDBRANCH  43  48
BRANCH  41  50
ATOM     50  O   UNL     1      12.543  20.553  41.535  0.00  0.00    +0.000 OA
ATOM     51  H   UNL     1      13.373  20.283  41.097  0.00  0.00    +0.000 HD
ENDBRANCH  41  50
ENDBRANCH  38  39
ENDBRANCH  37  38
ENDBRANCH   4  37
TORSDOF 15
ENDMDL
MODEL 10
REMARK VINA RESULT:    -5.991      2.164      9.223
REMARK INTER + INTRA:         -12.359
REMARK INTER:                  -9.966
REMARK INTRA:                  -2.392
REMARK UNBOUND:                -2.515
REMARK  Name = opt13.pdb
REMARK  17 active torsions:
REMARK  status: ('A' for Active; 'I' for Inactive)
REMARK    1  A    between atoms: C_6  and  O_10
REMARK    2  A    between atoms: C_7  and  C_12
REMARK    3  A    between atoms: C_13  and  O_16
REMARK    4  A    between atoms: O_16  and  C_19
REMARK    5  A    between atoms: C_17  and  O_20
REMARK    6  A    between atoms: C_21  and  O_24
REMARK    7  A    between atoms: C_23  and  O_26
REMARK    8  A    between atoms: O_24  and  C_28
REMARK    9  A    between atoms: C_25  and  C_30
REMARK   10  A    between atoms: C_27  and  O_31
REMARK   11  A    between atoms: C_29  and  O_32
REMARK   12  A    between atoms: C_30  and  O_33
REMARK   13  A    between atoms: O_33  and  C_34
REMARK   14  A    between atoms: C_36  and  O_38
REMARK   15  A    between atoms: C_37  and  C_41
REMARK   16  A    between atoms: C_39  and  O_42
REMARK   17  A    between atoms: C_40  and  O_43
REMARK                            x       y       z     vdW  Elec       q    Type
REMARK                         _______ _______ _______ _____ _____    ______ ____
ROOT
ATOM      1  C   UNL     1      17.322  16.846  43.007  0.00  0.00    +0.000 C 
ATOM      2  O   UNL     1      16.737  15.535  43.207  0.00  0.00    +0.000 OA
ATOM      3  C   UNL     1      18.748  16.682  42.441  0.00  0.00    +0.000 C 
ATOM      4  C   UNL     1      16.620  14.720  42.009  0.00  0.00    +0.000 C 
ATOM      5  C   UNL     1      18.767  15.770  41.190  0.00  0.00    +0.000 C 
ATOM      6  C   UNL     1      18.033  14.434  41.456  0.00  0.00    +0.000 C 
ENDROOT
BRANCH   3   7
ATOM      7  O   UNL     1      19.558  16.110  43.473  0.00  0.00    +0.000 OA
ATOM      8  H   UNL     1      20.483  16.345  43.272  0.00  0.00    +0.000 HD
ENDBRANCH   3   7
BRANCH   5   9
ATOM      9  O   UNL     1      20.128  15.502  40.850  0.00  0.00    +0.000 OA
ATOM     10  H   UNL     1      20.633  15.599  41.681  0.00  0.00    +0.000 HD
ENDBRANCH   5   9
BRANCH   6  11
ATOM     11  O   UNL     1      17.945  13.675  40.242  0.00  0.00    +0.000 OA
ATOM     12  H   UNL     1      18.087  12.731  40.439  0.00  0.00    +0.000 HD
ENDBRANCH   6  11
BRANCH   1  13
ATOM     13  O   UNL     1      16.502  17.632  42.108  0.00  0.00    +0.000 OA
BRANCH  13  24
ATOM     14  O   UNL     1      11.263  20.596  44.508  0.00  0.00    +0.000 OA
ATOM     15  C   UNL     1      11.424  19.598  43.829  0.00  0.00    +0.000 C 
ATOM     16  C   UNL     1      12.778  19.111  43.372  0.00  0.00    +0.000 A 
ATOM     17  C   UNL     1      10.213  18.810  43.383  0.00  0.00    +0.000 C 
ATOM     18  C   UNL     1      12.851  17.936  42.615  0.00  0.00    +0.000 A 
ATOM     19  C   UNL     1      13.967  19.787  43.684  0.00  0.00    +0.000 A 
ATOM     20  C   UNL     1      10.558  17.321  43.179  0.00  0.00    +0.000 C 
ATOM     21  O   UNL     1      11.708  17.224  42.308  0.00  0.00    +0.000 OA
ATOM     22  C   UNL     1      14.076  17.446  42.172  0.00  0.00    +0.000 A 
ATOM     23  C   UNL     1      15.198  19.281  43.256  0.00  0.00    +0.000 A 
ATOM     24  C   UNL     1      15.260  18.114  42.495  0.00  0.00    +0.000 A 
BRANCH  20  25
ATOM     25  C   UNL     1       9.408  16.556  42.547  0.00  0.00    +0.000 A 
ATOM     26  C   UNL     1       8.413  16.011  43.357  0.00  0.00    +0.000 A 
ATOM     27  C   UNL     1       9.349  16.369  41.169  0.00  0.00    +0.000 A 
ATOM     28  C   UNL     1       7.381  15.252  42.810  0.00  0.00    +0.000 A 
ATOM     29  C   UNL     1       8.312  15.625  40.611  0.00  0.00    +0.000 A 
ATOM     30  C   UNL     1       7.326  15.053  41.416  0.00  0.00    +0.000 A 
BRANCH  28  31
ATOM     31  O   UNL     1       6.478  14.720  43.682  0.00  0.00    +0.000 OA
ATOM     32  H   UNL     1       5.579  14.865  43.334  0.00  0.00    +0.000 HD
ENDBRANCH  28  31
BRANCH  30  33
ATOM     33  O   UNL     1       6.362  14.308  40.751  0.00  0.00    +0.000 OA
ATOM     34  C   UNL     1       6.297  12.864  40.708  0.00  0.00    +0.000 C 
ENDBRANCH  30  33
ENDBRANCH  20  25
BRANCH  19  35
ATOM     35  O   UNL     1      13.946  20.945  44.405  0.00  0.00    +0.000 OA
ATOM     36  H   UNL     1      14.880  21.254  44.493  0.00  0.00    +0.000 HD
ENDBRANCH  19  35
ENDBRANCH  13  24
ENDBRANCH   1  13
BRANCH   4  37
ATOM     37  C   UNL     1      15.871  13.432  42.385  0.00  0.00    +0.000 C 
BRANCH  37  38
ATOM     38  O   UNL     1      14.469  13.705  42.192  0.00  0.00    +0.000 OA
BRANCH  38  39
ATOM     39  C   UNL     1      13.701  13.939  43.387  0.00  0.00    +0.000 C 
ATOM     40  O   UNL     1      12.272  13.933  43.116  0.00  0.00    +0.000 OA
ATOM     41  C   UNL     1      14.040  12.803  44.372  0.00  0.00    +0.000 C 
ATOM     42  C   UNL     1      11.732  12.709  42.544  0.00  0.00    +0.000 C 
ATOM     43  C   UNL     1      13.532  11.455  43.806  0.00  0.00    +0.000 C 
ATOM     44  C   UNL     1      12.016  11.528  43.506  0.00  0.00    +0.000 C 
ATOM     45  C   UNL     1      10.222  12.924  42.324  0.00  0.00    +0.000 C 
BRANCH  44  46
ATOM     46  O   UNL     1      11.581  10.295  42.924  0.00  0.00    +0.000 OA
ATOM     47  H   UNL     1      11.838  10.292  41.985  0.00  0.00    +0.000 HD
ENDBRANCH  44  46
BRANCH  43  48
ATOM     48  O   UNL     1      13.803  10.424  44.754  0.00  0.00    +0.000 OA
ATOM     49  H   UNL     1      14.751  10.510  44.957  0.00  0.00    +0.000 HD
ENDBRANCH  43  48
BRANCH  41  50
ATOM     50  O   UNL     1      13.439  13.084  45.642  0.00  0.00    +0.000 OA
ATOM     51  H   UNL     1      14.130  12.997  46.327  0.00  0.00    +0.000 HD
ENDBRANCH  41  50
ENDBRANCH  38  39
ENDBRANCH  37  38
ENDBRANCH   4  37
TORSDOF 15
ENDMDL
MODEL 11
REMARK VINA RESULT:    -5.950      2.399      6.063
REMARK INTER + INTRA:         -12.291
REMARK INTER:                 -10.311
REMARK INTRA:                  -1.980
REMARK UNBOUND:                -2.515
REMARK  Name = opt13.pdb
REMARK  17 active torsions:
REMARK  status: ('A' for Active; 'I' for Inactive)
REMARK    1  A    between atoms: C_6  and  O_10
REMARK    2  A    between atoms: C_7  and  C_12
REMARK    3  A    between atoms: C_13  and  O_16
REMARK    4  A    between atoms: O_16  and  C_19
REMARK    5  A    between atoms: C_17  and  O_20
REMARK    6  A    between atoms: C_21  and  O_24
REMARK    7  A    between atoms: C_23  and  O_26
REMARK    8  A    between atoms: O_24  and  C_28
REMARK    9  A    between atoms: C_25  and  C_30
REMARK   10  A    between atoms: C_27  and  O_31
REMARK   11  A    between atoms: C_29  and  O_32
REMARK   12  A    between atoms: C_30  and  O_33
REMARK   13  A    between atoms: O_33  and  C_34
REMARK   14  A    between atoms: C_36  and  O_38
REMARK   15  A    between atoms: C_37  and  C_41
REMARK   16  A    between atoms: C_39  and  O_42
REMARK   17  A    between atoms: C_40  and  O_43
REMARK                            x       y       z     vdW  Elec       q    Type
REMARK                         _______ _______ _______ _____ _____    ______ ____
ROOT
ATOM      1  C   UNL     1      10.390  16.718  42.297  0.00  0.00    +0.000 C 
ATOM      2  O   UNL     1      10.907  15.366  42.228  0.00  0.00    +0.000 OA
ATOM      3  C   UNL     1       8.865  16.667  42.524  0.00  0.00    +0.000 C 
ATOM      4  C   UNL     1      10.689  14.559  43.419  0.00  0.00    +0.000 C 
ATOM      5  C   UNL     1       8.496  15.774  43.735  0.00  0.00    +0.000 C 
ATOM      6  C   UNL     1       9.170  14.385  43.636  0.00  0.00    +0.000 C 
ENDROOT
BRANCH   3   7
ATOM      7  O   UNL     1       8.269  16.143  41.333  0.00  0.00    +0.000 OA
ATOM      8  H   UNL     1       7.820  16.886  40.888  0.00  0.00    +0.000 HD
ENDBRANCH   3   7
BRANCH   5   9
ATOM      9  O   UNL     1       7.077  15.611  43.757  0.00  0.00    +0.000 OA
ATOM     10  H   UNL     1       6.762  16.130  44.523  0.00  0.00    +0.000 HD
ENDBRANCH   5   9
BRANCH   6  11
ATOM     11  O   UNL     1       8.925  13.637  44.835  0.00  0.00    +0.000 OA
ATOM     12  H   UNL     1       7.977  13.685  45.059  0.00  0.00    +0.000 HD
ENDBRANCH   6  11
BRANCH   1  13
ATOM     13  O   UNL     1      11.042  17.454  43.361  0.00  0.00    +0.000 OA
BRANCH  13  24
ATOM     14  O   UNL     1      16.947  19.558  41.725  0.00  0.00    +0.000 OA
ATOM     15  C   UNL     1      16.451  19.187  42.773  0.00  0.00    +0.000 C 
ATOM     16  C   UNL     1      15.011  18.753  42.904  0.00  0.00    +0.000 A 
ATOM     17  C   UNL     1      17.296  19.188  44.026  0.00  0.00    +0.000 C 
ATOM     18  C   UNL     1      14.549  18.320  44.152  0.00  0.00    +0.000 A 
ATOM     19  C   UNL     1      14.120  18.757  41.820  0.00  0.00    +0.000 A 
ATOM     20  C   UNL     1      16.819  18.112  45.023  0.00  0.00    +0.000 C 
ATOM     21  O   UNL     1      15.399  18.273  45.240  0.00  0.00    +0.000 OA
ATOM     22  C   UNL     1      13.231  17.908  44.323  0.00  0.00    +0.000 A 
ATOM     23  C   UNL     1      12.803  18.321  41.989  0.00  0.00    +0.000 A 
ATOM     24  C   UNL     1      12.349  17.900  43.239  0.00  0.00    +0.000 A 
BRANCH  20  25
ATOM     25  C   UNL     1      17.529  18.228  46.361  0.00  0.00    +0.000 A 
ATOM     26  C   UNL     1      16.788  18.459  47.518  0.00  0.00    +0.000 A 
ATOM     27  C   UNL     1      18.915  18.133  46.442  0.00  0.00    +0.000 A 
ATOM     28  C   UNL     1      17.418  18.631  48.749  0.00  0.00    +0.000 A 
ATOM     29  C   UNL     1      19.553  18.287  47.671  0.00  0.00    +0.000 A 
ATOM     30  C   UNL     1      18.822  18.546  48.831  0.00  0.00    +0.000 A 
BRANCH  28  31
ATOM     31  O   UNL     1      16.617  18.899  49.820  0.00  0.00    +0.000 OA
ATOM     32  H   UNL     1      16.937  18.392  50.588  0.00  0.00    +0.000 HD
ENDBRANCH  28  31
BRANCH  30  33
ATOM     33  O   UNL     1      19.568  18.713  49.989  0.00  0.00    +0.000 OA
ATOM     34  C   UNL     1      20.169  19.951  50.432  0.00  0.00    +0.000 C 
ENDBRANCH  30  33
ENDBRANCH  20  25
BRANCH  19  35
ATOM     35  O   UNL     1      14.519  19.184  40.587  0.00  0.00    +0.000 OA
ATOM     36  H   UNL     1      13.708  19.285  40.034  0.00  0.00    +0.000 HD
ENDBRANCH  19  35
ENDBRANCH  13  24
ENDBRANCH   1  13
BRANCH   4  37
ATOM     37  C   UNL     1      11.406  13.216  43.216  0.00  0.00    +0.000 C 
BRANCH  37  38
ATOM     38  O   UNL     1      12.811  13.516  43.108  0.00  0.00    +0.000 OA
BRANCH  38  39
ATOM     39  C   UNL     1      13.694  12.383  43.013  0.00  0.00    +0.000 C 
ATOM     40  O   UNL     1      14.761  12.613  42.053  0.00  0.00    +0.000 OA
ATOM     41  C   UNL     1      14.302  12.167  44.413  0.00  0.00    +0.000 C 
ATOM     42  C   UNL     1      15.625  13.754  42.314  0.00  0.00    +0.000 C 
ATOM     43  C   UNL     1      15.204  13.369  44.780  0.00  0.00    +0.000 C 
ATOM     44  C   UNL     1      16.293  13.581  43.701  0.00  0.00    +0.000 C 
ATOM     45  C   UNL     1      16.664  13.821  41.177  0.00  0.00    +0.000 C 
BRANCH  44  46
ATOM     46  O   UNL     1      17.074  14.735  44.026  0.00  0.00    +0.000 OA
ATOM     47  H   UNL     1      17.978  14.597  43.693  0.00  0.00    +0.000 HD
ENDBRANCH  44  46
BRANCH  43  48
ATOM     48  O   UNL     1      15.803  13.128  46.051  0.00  0.00    +0.000 OA
ATOM     49  H   UNL     1      16.413  13.873  46.191  0.00  0.00    +0.000 HD
ENDBRANCH  43  48
BRANCH  41  50
ATOM     50  O   UNL     1      15.050  10.945  44.419  0.00  0.00    +0.000 OA
ATOM     51  H   UNL     1      14.718  10.385  43.690  0.00  0.00    +0.000 HD
ENDBRANCH  41  50
ENDBRANCH  38  39
ENDBRANCH  37  38
ENDBRANCH   4  37
TORSDOF 15
ENDMDL
MODEL 12
REMARK VINA RESULT:    -5.848      2.135      9.166
REMARK INTER + INTRA:         -12.124
REMARK INTER:                  -9.671
REMARK INTRA:                  -2.453
REMARK UNBOUND:                -2.515
REMARK  Name = opt13.pdb
REMARK  17 active torsions:
REMARK  status: ('A' for Active; 'I' for Inactive)
REMARK    1  A    between atoms: C_6  and  O_10
REMARK    2  A    between atoms: C_7  and  C_12
REMARK    3  A    between atoms: C_13  and  O_16
REMARK    4  A    between atoms: O_16  and  C_19
REMARK    5  A    between atoms: C_17  and  O_20
REMARK    6  A    between atoms: C_21  and  O_24
REMARK    7  A    between atoms: C_23  and  O_26
REMARK    8  A    between atoms: O_24  and  C_28
REMARK    9  A    between atoms: C_25  and  C_30
REMARK   10  A    between atoms: C_27  and  O_31
REMARK   11  A    between atoms: C_29  and  O_32
REMARK   12  A    between atoms: C_30  and  O_33
REMARK   13  A    between atoms: O_33  and  C_34
REMARK   14  A    between atoms: C_36  and  O_38
REMARK   15  A    between atoms: C_37  and  C_41
REMARK   16  A    between atoms: C_39  and  O_42
REMARK   17  A    between atoms: C_40  and  O_43
REMARK                            x       y       z     vdW  Elec       q    Type
REMARK                         _______ _______ _______ _____ _____    ______ ____
ROOT
ATOM      1  C   UNL     1      16.862  17.767  42.415  0.00  0.00    +0.000 C 
ATOM      2  O   UNL     1      16.600  16.974  43.600  0.00  0.00    +0.000 OA
ATOM      3  C   UNL     1      18.086  17.185  41.676  0.00  0.00    +0.000 C 
ATOM      4  C   UNL     1      16.308  15.571  43.352  0.00  0.00    +0.000 C 
ATOM      5  C   UNL     1      17.926  15.667  41.413  0.00  0.00    +0.000 C 
ATOM      6  C   UNL     1      17.544  14.908  42.706  0.00  0.00    +0.000 C 
ENDROOT
BRANCH   3   7
ATOM      7  O   UNL     1      19.236  17.418  42.496  0.00  0.00    +0.000 OA
ATOM      8  H   UNL     1      19.627  16.547  42.692  0.00  0.00    +0.000 HD
ENDBRANCH   3   7
BRANCH   5   9
ATOM      9  O   UNL     1      19.168  15.164  40.918  0.00  0.00    +0.000 OA
ATOM     10  H   UNL     1      19.594  15.915  40.460  0.00  0.00    +0.000 HD
ENDBRANCH   5   9
BRANCH   6  11
ATOM     11  O   UNL     1      17.267  13.534  42.402  0.00  0.00    +0.000 OA
ATOM     12  H   UNL     1      16.861  13.473  41.517  0.00  0.00    +0.000 HD
ENDBRANCH   6  11
BRANCH   1  13
ATOM     13  O   UNL     1      15.701  17.782  41.550  0.00  0.00    +0.000 OA
BRANCH  13  24
ATOM     14  O   UNL     1      10.550  20.880  43.968  0.00  0.00    +0.000 OA
ATOM     15  C   UNL     1      10.710  19.777  43.480  0.00  0.00    +0.000 C 
ATOM     16  C   UNL     1      12.038  19.282  42.959  0.00  0.00    +0.000 A 
ATOM     17  C   UNL     1       9.522  18.852  43.348  0.00  0.00    +0.000 C 
ATOM     18  C   UNL     1      12.117  17.985  42.439  0.00  0.00    +0.000 A 
ATOM     19  C   UNL     1      13.199  20.070  42.984  0.00  0.00    +0.000 A 
ATOM     20  C   UNL     1       9.956  17.373  43.393  0.00  0.00    +0.000 C 
ATOM     21  O   UNL     1      11.006  17.165  42.421  0.00  0.00    +0.000 OA
ATOM     22  C   UNL     1      13.319  17.483  41.950  0.00  0.00    +0.000 A 
ATOM     23  C   UNL     1      14.409  19.555  42.512  0.00  0.00    +0.000 A 
ATOM     24  C   UNL     1      14.477  18.264  41.988  0.00  0.00    +0.000 A 
BRANCH  20  25
ATOM     25  C   UNL     1       8.805  16.436  43.069  0.00  0.00    +0.000 A 
ATOM     26  C   UNL     1       7.745  16.307  43.965  0.00  0.00    +0.000 A 
ATOM     27  C   UNL     1       8.808  15.682  41.899  0.00  0.00    +0.000 A 
ATOM     28  C   UNL     1       6.708  15.409  43.723  0.00  0.00    +0.000 A 
ATOM     29  C   UNL     1       7.767  14.793  41.640  0.00  0.00    +0.000 A 
ATOM     30  C   UNL     1       6.716  14.638  42.545  0.00  0.00    +0.000 A 
BRANCH  28  31
ATOM     31  O   UNL     1       5.737  15.317  44.677  0.00  0.00    +0.000 OA
ATOM     32  H   UNL     1       4.968  14.852  44.300  0.00  0.00    +0.000 HD
ENDBRANCH  28  31
BRANCH  30  33
ATOM     33  O   UNL     1       5.753  13.701  42.194  0.00  0.00    +0.000 OA
ATOM     34  C   UNL     1       5.701  12.334  42.661  0.00  0.00    +0.000 C 
ENDBRANCH  30  33
ENDBRANCH  20  25
BRANCH  19  35
ATOM     35  O   UNL     1      13.169  21.346  43.466  0.00  0.00    +0.000 OA
ATOM     36  H   UNL     1      12.824  21.304  44.390  0.00  0.00    +0.000 HD
ENDBRANCH  19  35
ENDBRANCH  13  24
ENDBRANCH   1  13
BRANCH   4  37
ATOM     37  C   UNL     1      15.935  14.923  44.694  0.00  0.00    +0.000 C 
BRANCH  37  38
ATOM     38  O   UNL     1      14.517  14.672  44.645  0.00  0.00    +0.000 OA
BRANCH  38  39
ATOM     39  C   UNL     1      14.093  13.362  45.066  0.00  0.00    +0.000 C 
ATOM     40  O   UNL     1      12.643  13.266  45.139  0.00  0.00    +0.000 OA
ATOM     41  C   UNL     1      14.620  12.360  44.021  0.00  0.00    +0.000 C 
ATOM     42  C   UNL     1      11.919  13.528  43.905  0.00  0.00    +0.000 C 
ATOM     43  C   UNL     1      13.923  12.608  42.662  0.00  0.00    +0.000 C 
ATOM     44  C   UNL     1      12.385  12.527  42.817  0.00  0.00    +0.000 C 
ATOM     45  C   UNL     1      10.414  13.390  44.209  0.00  0.00    +0.000 C 
BRANCH  44  46
ATOM     46  O   UNL     1      11.759  12.824  41.565  0.00  0.00    +0.000 OA
ATOM     47  H   UNL     1      12.308  12.453  40.853  0.00  0.00    +0.000 HD
ENDBRANCH  44  46
BRANCH  43  48
ATOM     48  O   UNL     1      14.380  11.637  41.723  0.00  0.00    +0.000 OA
ATOM     49  H   UNL     1      13.724  10.919  41.760  0.00  0.00    +0.000 HD
ENDBRANCH  43  48
BRANCH  41  50
ATOM     50  O   UNL     1      14.379  11.025  44.484  0.00  0.00    +0.000 OA
ATOM     51  H   UNL     1      15.171  10.490  44.286  0.00  0.00    +0.000 HD
ENDBRANCH  41  50
ENDBRANCH  38  39
ENDBRANCH  37  38
ENDBRANCH   4  37
TORSDOF 15
ENDMDL
MODEL 13
REMARK VINA RESULT:    -5.843      2.415      5.822
REMARK INTER + INTRA:         -12.115
REMARK INTER:                 -10.667
REMARK INTRA:                  -1.448
REMARK UNBOUND:                -2.515
REMARK  Name = opt13.pdb
REMARK  17 active torsions:
REMARK  status: ('A' for Active; 'I' for Inactive)
REMARK    1  A    between atoms: C_6  and  O_10
REMARK    2  A    between atoms: C_7  and  C_12
REMARK    3  A    between atoms: C_13  and  O_16
REMARK    4  A    between atoms: O_16  and  C_19
REMARK    5  A    between atoms: C_17  and  O_20
REMARK    6  A    between atoms: C_21  and  O_24
REMARK    7  A    between atoms: C_23  and  O_26
REMARK    8  A    between atoms: O_24  and  C_28
REMARK    9  A    between atoms: C_25  and  C_30
REMARK   10  A    between atoms: C_27  and  O_31
REMARK   11  A    between atoms: C_29  and  O_32
REMARK   12  A    between atoms: C_30  and  O_33
REMARK   13  A    between atoms: O_33  and  C_34
REMARK   14  A    between atoms: C_36  and  O_38
REMARK   15  A    between atoms: C_37  and  C_41
REMARK   16  A    between atoms: C_39  and  O_42
REMARK   17  A    between atoms: C_40  and  O_43
REMARK                            x       y       z     vdW  Elec       q    Type
REMARK                         _______ _______ _______ _____ _____    ______ ____
ROOT
ATOM      1  C   UNL     1      12.400  13.223  44.172  0.00  0.00    +0.000 C 
ATOM      2  O   UNL     1      11.054  13.277  44.708  0.00  0.00    +0.000 OA
ATOM      3  C   UNL     1      12.505  12.041  43.185  0.00  0.00    +0.000 C 
ATOM      4  C   UNL     1      10.003  13.464  43.721  0.00  0.00    +0.000 C 
ATOM      5  C   UNL     1      11.387  12.089  42.115  0.00  0.00    +0.000 C 
ATOM      6  C   UNL     1       9.992  12.252  42.764  0.00  0.00    +0.000 C 
ENDROOT
BRANCH   3   7
ATOM      7  O   UNL     1      12.400  10.833  43.946  0.00  0.00    +0.000 OA
ATOM      8  H   UNL     1      13.151  10.822  44.567  0.00  0.00    +0.000 HD
ENDBRANCH   3   7
BRANCH   5   9
ATOM      9  O   UNL     1      11.423  10.869  41.373  0.00  0.00    +0.000 OA
ATOM     10  H   UNL     1      11.720  11.114  40.474  0.00  0.00    +0.000 HD
ENDBRANCH   5   9
BRANCH   6  11
ATOM     11  O   UNL     1       8.998  12.433  41.747  0.00  0.00    +0.000 OA
ATOM     12  H   UNL     1       9.255  11.936  40.948  0.00  0.00    +0.000 HD
ENDBRANCH   6  11
BRANCH   1  13
ATOM     13  O   UNL     1      12.732  14.470  43.515  0.00  0.00    +0.000 OA
BRANCH  13  24
ATOM     14  O   UNL     1      18.939  15.918  42.346  0.00  0.00    +0.000 OA
ATOM     15  C   UNL     1      18.161  16.219  43.233  0.00  0.00    +0.000 C 
ATOM     16  C   UNL     1      16.724  15.758  43.272  0.00  0.00    +0.000 A 
ATOM     17  C   UNL     1      18.631  17.131  44.344  0.00  0.00    +0.000 C 
ATOM     18  C   UNL     1      15.922  16.143  44.353  0.00  0.00    +0.000 A 
ATOM     19  C   UNL     1      16.163  14.950  42.271  0.00  0.00    +0.000 A 
ATOM     20  C   UNL     1      17.859  16.863  45.651  0.00  0.00    +0.000 C 
ATOM     21  O   UNL     1      16.441  16.915  45.375  0.00  0.00    +0.000 OA
ATOM     22  C   UNL     1      14.592  15.742  44.435  0.00  0.00    +0.000 A 
ATOM     23  C   UNL     1      14.834  14.530  42.368  0.00  0.00    +0.000 A 
ATOM     24  C   UNL     1      14.040  14.926  43.444  0.00  0.00    +0.000 A 
BRANCH  20  25
ATOM     25  C   UNL     1      18.181  17.895  46.719  0.00  0.00    +0.000 A 
ATOM     26  C   UNL     1      17.331  18.045  47.813  0.00  0.00    +0.000 A 
ATOM     27  C   UNL     1      19.300  18.714  46.602  0.00  0.00    +0.000 A 
ATOM     28  C   UNL     1      17.568  19.026  48.774  0.00  0.00    +0.000 A 
ATOM     29  C   UNL     1      19.555  19.687  47.567  0.00  0.00    +0.000 A 
ATOM     30  C   UNL     1      18.695  19.862  48.652  0.00  0.00    +0.000 A 
BRANCH  28  31
ATOM     31  O   UNL     1      16.660  19.130  49.786  0.00  0.00    +0.000 OA
ATOM     32  H   UNL     1      16.763  20.000  50.214  0.00  0.00    +0.000 HD
ENDBRANCH  28  31
BRANCH  30  33
ATOM     33  O   UNL     1      19.035  20.883  49.530  0.00  0.00    +0.000 OA
ATOM     34  C   UNL     1      20.232  20.933  50.339  0.00  0.00    +0.000 C 
ENDBRANCH  30  33
ENDBRANCH  20  25
BRANCH  19  35
ATOM     35  O   UNL     1      16.899  14.563  41.190  0.00  0.00    +0.000 OA
ATOM     36  H   UNL     1      16.439  13.790  40.782  0.00  0.00    +0.000 HD
ENDBRANCH  19  35
ENDBRANCH  13  24
ENDBRANCH   1  13
BRANCH   4  37
ATOM     37  C   UNL     1       8.673  13.623  44.473  0.00  0.00    +0.000 C 
BRANCH  37  38
ATOM     38  O   UNL     1       7.683  13.967  43.483  0.00  0.00    +0.000 OA
BRANCH  38  39
ATOM     39  C   UNL     1       7.233  15.335  43.489  0.00  0.00    +0.000 C 
ATOM     40  O   UNL     1       8.284  16.247  43.066  0.00  0.00    +0.000 OA
ATOM     41  C   UNL     1       6.050  15.425  42.505  0.00  0.00    +0.000 C 
ATOM     42  C   UNL     1       8.829  16.026  41.735  0.00  0.00    +0.000 C 
ATOM     43  C   UNL     1       6.549  15.156  41.065  0.00  0.00    +0.000 C 
ATOM     44  C   UNL     1       7.688  16.134  40.692  0.00  0.00    +0.000 C 
ATOM     45  C   UNL     1       9.928  17.081  41.500  0.00  0.00    +0.000 C 
BRANCH  44  46
ATOM     46  O   UNL     1       8.178  15.825  39.384  0.00  0.00    +0.000 OA
ATOM     47  H   UNL     1       8.575  16.630  39.007  0.00  0.00    +0.000 HD
ENDBRANCH  44  46
BRANCH  43  48
ATOM     48  O   UNL     1       5.454  15.298  40.163  0.00  0.00    +0.000 OA
ATOM     49  H   UNL     1       5.632  16.123  39.677  0.00  0.00    +0.000 HD
ENDBRANCH  43  48
BRANCH  41  50
ATOM     50  O   UNL     1       5.452  16.723  42.605  0.00  0.00    +0.000 OA
ATOM     51  H   UNL     1       5.745  17.250  41.836  0.00  0.00    +0.000 HD
ENDBRANCH  41  50
ENDBRANCH  38  39
ENDBRANCH  37  38
ENDBRANCH   4  37
TORSDOF 15
ENDMDL
MODEL 14
REMARK VINA RESULT:    -5.839      1.822      7.952
REMARK INTER + INTRA:         -12.109
REMARK INTER:                  -9.325
REMARK INTRA:                  -2.785
REMARK UNBOUND:                -2.515
REMARK  Name = opt13.pdb
REMARK  17 active torsions:
REMARK  status: ('A' for Active; 'I' for Inactive)
REMARK    1  A    between atoms: C_6  and  O_10
REMARK    2  A    between atoms: C_7  and  C_12
REMARK    3  A    between atoms: C_13  and  O_16
REMARK    4  A    between atoms: O_16  and  C_19
REMARK    5  A    between atoms: C_17  and  O_20
REMARK    6  A    between atoms: C_21  and  O_24
REMARK    7  A    between atoms: C_23  and  O_26
REMARK    8  A    between atoms: O_24  and  C_28
REMARK    9  A    between atoms: C_25  and  C_30
REMARK   10  A    between atoms: C_27  and  O_31
REMARK   11  A    between atoms: C_29  and  O_32
REMARK   12  A    between atoms: C_30  and  O_33
REMARK   13  A    between atoms: O_33  and  C_34
REMARK   14  A    between atoms: C_36  and  O_38
REMARK   15  A    between atoms: C_37  and  C_41
REMARK   16  A    between atoms: C_39  and  O_42
REMARK   17  A    between atoms: C_40  and  O_43
REMARK                            x       y       z     vdW  Elec       q    Type
REMARK                         _______ _______ _______ _____ _____    ______ ____
ROOT
ATOM      1  C   UNL     1      17.790  14.511  43.891  0.00  0.00    +0.000 C 
ATOM      2  O   UNL     1      17.540  15.409  42.781  0.00  0.00    +0.000 OA
ATOM      3  C   UNL     1      19.087  14.941  44.608  0.00  0.00    +0.000 C 
ATOM      4  C   UNL     1      17.373  16.807  43.142  0.00  0.00    +0.000 C 
ATOM      5  C   UNL     1      19.061  16.442  44.987  0.00  0.00    +0.000 C 
ATOM      6  C   UNL     1      18.685  17.323  43.772  0.00  0.00    +0.000 C 
ENDROOT
BRANCH   3   7
ATOM      7  O   UNL     1      20.178  14.682  43.718  0.00  0.00    +0.000 OA
ATOM      8  H   UNL     1      20.801  14.102  44.193  0.00  0.00    +0.000 HD
ENDBRANCH   3   7
BRANCH   5   9
ATOM      9  O   UNL     1      20.359  16.810  45.454  0.00  0.00    +0.000 OA
ATOM     10  H   UNL     1      20.433  17.773  45.302  0.00  0.00    +0.000 HD
ENDBRANCH   5   9
BRANCH   6  11
ATOM     11  O   UNL     1      18.532  18.688  44.186  0.00  0.00    +0.000 OA
ATOM     12  H   UNL     1      19.402  19.050  44.439  0.00  0.00    +0.000 HD
ENDBRANCH   6  11
BRANCH   1  13
ATOM     13  O   UNL     1      16.670  14.520  44.809  0.00  0.00    +0.000 OA
BRANCH  13  24
ATOM     14  O   UNL     1      11.763  10.508  43.464  0.00  0.00    +0.000 OA
ATOM     15  C   UNL     1      11.867  11.721  43.504  0.00  0.00    +0.000 C 
ATOM     16  C   UNL     1      13.145  12.435  43.872  0.00  0.00    +0.000 A 
ATOM     17  C   UNL     1      10.653  12.572  43.208  0.00  0.00    +0.000 C 
ATOM     18  C   UNL     1      13.161  13.835  43.863  0.00  0.00    +0.000 A 
ATOM     19  C   UNL     1      14.321  11.749  44.213  0.00  0.00    +0.000 A 
ATOM     20  C   UNL     1      11.059  13.942  42.628  0.00  0.00    +0.000 C 
ATOM     21  O   UNL     1      12.035  14.549  43.506  0.00  0.00    +0.000 OA
ATOM     22  C   UNL     1      14.316  14.538  44.192  0.00  0.00    +0.000 A 
ATOM     23  C   UNL     1      15.485  12.458  44.522  0.00  0.00    +0.000 A 
ATOM     24  C   UNL     1      15.489  13.853  44.519  0.00  0.00    +0.000 A 
BRANCH  20  25
ATOM     25  C   UNL     1       9.870  14.879  42.506  0.00  0.00    +0.000 A 
ATOM     26  C   UNL     1       9.296  15.109  41.257  0.00  0.00    +0.000 A 
ATOM     27  C   UNL     1       9.362  15.534  43.625  0.00  0.00    +0.000 A 
ATOM     28  C   UNL     1       8.245  16.011  41.108  0.00  0.00    +0.000 A 
ATOM     29  C   UNL     1       8.300  16.425  43.488  0.00  0.00    +0.000 A 
ATOM     30  C   UNL     1       7.737  16.682  42.237  0.00  0.00    +0.000 A 
BRANCH  28  31
ATOM     31  O   UNL     1       7.776  16.207  39.842  0.00  0.00    +0.000 OA
ATOM     32  H   UNL     1       6.803  16.236  39.866  0.00  0.00    +0.000 HD
ENDBRANCH  28  31
BRANCH  30  33
ATOM     33  O   UNL     1       6.706  17.612  42.220  0.00  0.00    +0.000 OA
ATOM     34  C   UNL     1       5.752  17.829  43.285  0.00  0.00    +0.000 C 
ENDBRANCH  30  33
ENDBRANCH  20  25
BRANCH  19  35
ATOM     35  O   UNL     1      14.350  10.386  44.252  0.00  0.00    +0.000 OA
ATOM     36  H   UNL     1      15.148  10.094  43.748  0.00  0.00    +0.000 HD
ENDBRANCH  19  35
ENDBRANCH  13  24
ENDBRANCH   1  13
BRANCH   4  37
ATOM     37  C   UNL     1      16.994  17.581  41.870  0.00  0.00    +0.000 C 
BRANCH  37  38
ATOM     38  O   UNL     1      15.554  17.634  41.839  0.00  0.00    +0.000 OA
BRANCH  38  39
ATOM     39  C   UNL     1      14.968  18.938  42.011  0.00  0.00    +0.000 C 
ATOM     40  O   UNL     1      13.564  18.948  41.630  0.00  0.00    +0.000 OA
ATOM     41  C   UNL     1      15.095  19.297  43.505  0.00  0.00    +0.000 C 
ATOM     42  C   UNL     1      12.695  18.035  42.356  0.00  0.00    +0.000 C 
ATOM     43  C   UNL     1      14.227  18.333  44.348  0.00  0.00    +0.000 C 
ATOM     44  C   UNL     1      12.756  18.365  43.868  0.00  0.00    +0.000 C 
ATOM     45  C   UNL     1      11.271  18.195  41.787  0.00  0.00    +0.000 C 
BRANCH  44  46
ATOM     46  O   UNL     1      11.985  17.420  44.617  0.00  0.00    +0.000 OA
ATOM     47  H   UNL     1      11.061  17.724  44.634  0.00  0.00    +0.000 HD
ENDBRANCH  44  46
BRANCH  43  48
ATOM     48  O   UNL     1      14.312  18.714  45.719  0.00  0.00    +0.000 OA
ATOM     49  H   UNL     1      14.893  19.495  45.730  0.00  0.00    +0.000 HD
ENDBRANCH  43  48
BRANCH  41  50
ATOM     50  O   UNL     1      14.687  20.657  43.699  0.00  0.00    +0.000 OA
ATOM     51  H   UNL     1      14.392  21.009  42.838  0.00  0.00    +0.000 HD
ENDBRANCH  41  50
ENDBRANCH  38  39
ENDBRANCH  37  38
ENDBRANCH   4  37
TORSDOF 15
ENDMDL
MODEL 15
REMARK VINA RESULT:    -5.836      1.259      2.282
REMARK INTER + INTRA:         -12.103
REMARK INTER:                  -9.174
REMARK INTRA:                  -2.929
REMARK UNBOUND:                -2.515
REMARK  Name = opt13.pdb
REMARK  17 active torsions:
REMARK  status: ('A' for Active; 'I' for Inactive)
REMARK    1  A    between atoms: C_6  and  O_10
REMARK    2  A    between atoms: C_7  and  C_12
REMARK    3  A    between atoms: C_13  and  O_16
REMARK    4  A    between atoms: O_16  and  C_19
REMARK    5  A    between atoms: C_17  and  O_20
REMARK    6  A    between atoms: C_21  and  O_24
REMARK    7  A    between atoms: C_23  and  O_26
REMARK    8  A    between atoms: O_24  and  C_28
REMARK    9  A    between atoms: C_25  and  C_30
REMARK   10  A    between atoms: C_27  and  O_31
REMARK   11  A    between atoms: C_29  and  O_32
REMARK   12  A    between atoms: C_30  and  O_33
REMARK   13  A    between atoms: O_33  and  C_34
REMARK   14  A    between atoms: C_36  and  O_38
REMARK   15  A    between atoms: C_37  and  C_41
REMARK   16  A    between atoms: C_39  and  O_42
REMARK   17  A    between atoms: C_40  and  O_43
REMARK                            x       y       z     vdW  Elec       q    Type
REMARK                         _______ _______ _______ _____ _____    ______ ____
ROOT
ATOM      1  C   UNL     1       8.533  14.367  42.495  0.00  0.00    +0.000 C 
ATOM      2  O   UNL     1       8.956  15.704  42.860  0.00  0.00    +0.000 OA
ATOM      3  C   UNL     1       7.216  14.453  41.695  0.00  0.00    +0.000 C 
ATOM      4  C   UNL     1       9.204  16.601  41.742  0.00  0.00    +0.000 C 
ATOM      5  C   UNL     1       7.331  15.439  40.507  0.00  0.00    +0.000 C 
ATOM      6  C   UNL     1       7.887  16.809  40.963  0.00  0.00    +0.000 C 
ENDROOT
BRANCH   3   7
ATOM      7  O   UNL     1       6.193  14.892  42.595  0.00  0.00    +0.000 OA
ATOM      8  H   UNL     1       5.589  15.461  42.083  0.00  0.00    +0.000 HD
ENDBRANCH   3   7
BRANCH   5   9
ATOM      9  O   UNL     1       6.030  15.620  39.946  0.00  0.00    +0.000 OA
ATOM     10  H   UNL     1       5.536  16.162  40.592  0.00  0.00    +0.000 HD
ENDBRANCH   5   9
BRANCH   6  11
ATOM     11  O   UNL     1       8.114  17.649  39.823  0.00  0.00    +0.000 OA
ATOM     12  H   UNL     1       8.386  17.100  39.065  0.00  0.00    +0.000 HD
ENDBRANCH   6  11
BRANCH   1  13
ATOM     13  O   UNL     1       9.562  13.707  41.718  0.00  0.00    +0.000 OA
BRANCH  13  24
ATOM     14  O   UNL     1      14.567  10.702  44.529  0.00  0.00    +0.000 OA
ATOM     15  C   UNL     1      14.348  11.861  44.226  0.00  0.00    +0.000 C 
ATOM     16  C   UNL     1      13.081  12.319  43.545  0.00  0.00    +0.000 A 
ATOM     17  C   UNL     1      15.404  12.906  44.508  0.00  0.00    +0.000 C 
ATOM     18  C   UNL     1      12.921  13.681  43.264  0.00  0.00    +0.000 A 
ATOM     19  C   UNL     1      12.053  11.432  43.191  0.00  0.00    +0.000 A 
ATOM     20  C   UNL     1      14.772  14.294  44.732  0.00  0.00    +0.000 C 
ATOM     21  O   UNL     1      13.895  14.592  43.621  0.00  0.00    +0.000 OA
ATOM     22  C   UNL     1      11.770  14.151  42.640  0.00  0.00    +0.000 A 
ATOM     23  C   UNL     1      10.889  11.910  42.584  0.00  0.00    +0.000 A 
ATOM     24  C   UNL     1      10.741  13.268  42.300  0.00  0.00    +0.000 A 
BRANCH  20  25
ATOM     25  C   UNL     1      15.824  15.386  44.823  0.00  0.00    +0.000 A 
ATOM     26  C   UNL     1      15.432  16.723  44.844  0.00  0.00    +0.000 A 
ATOM     27  C   UNL     1      17.179  15.068  44.858  0.00  0.00    +0.000 A 
ATOM     28  C   UNL     1      16.378  17.746  44.865  0.00  0.00    +0.000 A 
ATOM     29  C   UNL     1      18.132  16.083  44.895  0.00  0.00    +0.000 A 
ATOM     30  C   UNL     1      17.750  17.426  44.889  0.00  0.00    +0.000 A 
BRANCH  28  31
ATOM     31  O   UNL     1      15.904  19.025  44.838  0.00  0.00    +0.000 OA
ATOM     32  H   UNL     1      16.529  19.603  45.312  0.00  0.00    +0.000 HD
ENDBRANCH  28  31
BRANCH  30  33
ATOM     33  O   UNL     1      18.788  18.347  44.896  0.00  0.00    +0.000 OA
ATOM     34  C   UNL     1      19.754  18.533  43.837  0.00  0.00    +0.000 C 
ENDBRANCH  30  33
ENDBRANCH  20  25
BRANCH  19  35
ATOM     35  O   UNL     1      12.169  10.094  43.429  0.00  0.00    +0.000 OA
ATOM     36  H   UNL     1      13.090   9.930  43.745  0.00  0.00    +0.000 HD
ENDBRANCH  19  35
ENDBRANCH  13  24
ENDBRANCH   1  13
BRANCH   4  37
ATOM     37  C   UNL     1       9.759  17.917  42.308  0.00  0.00    +0.000 C 
BRANCH  37  38
ATOM     38  O   UNL     1      10.714  18.405  41.344  0.00  0.00    +0.000 OA
BRANCH  38  39
ATOM     39  C   UNL     1      11.744  17.478  40.952  0.00  0.00    +0.000 C 
ATOM     40  O   UNL     1      12.116  17.650  39.556  0.00  0.00    +0.000 OA
ATOM     41  C   UNL     1      12.968  17.760  41.846  0.00  0.00    +0.000 C 
ATOM     42  C   UNL     1      12.615  18.964  39.181  0.00  0.00    +0.000 C 
ATOM     43  C   UNL     1      13.529  19.167  41.532  0.00  0.00    +0.000 C 
ATOM     44  C   UNL     1      13.869  19.294  40.028  0.00  0.00    +0.000 C 
ATOM     45  C   UNL     1      12.928  18.930  37.672  0.00  0.00    +0.000 C 
BRANCH  44  46
ATOM     46  O   UNL     1      14.325  20.621  39.748  0.00  0.00    +0.000 OA
ATOM     47  H   UNL     1      15.216  20.725  40.125  0.00  0.00    +0.000 HD
ENDBRANCH  44  46
BRANCH  43  48
ATOM     48  O   UNL     1      14.693  19.388  42.326  0.00  0.00    +0.000 OA
ATOM     49  H   UNL     1      14.557  20.259  42.739  0.00  0.00    +0.000 HD
ENDBRANCH  43  48
BRANCH  41  50
ATOM     50  O   UNL     1      13.959  16.750  41.618  0.00  0.00    +0.000 OA
ATOM     51  H   UNL     1      13.820  16.038  42.273  0.00  0.00    +0.000 HD
ENDBRANCH  41  50
ENDBRANCH  38  39
ENDBRANCH  37  38
ENDBRANCH   4  37
TORSDOF 15
ENDMDL
MODEL 16
REMARK VINA RESULT:    -5.833      2.190      3.818
REMARK INTER + INTRA:         -12.099
REMARK INTER:                 -10.486
REMARK INTRA:                  -1.613
REMARK UNBOUND:                -2.515
REMARK  Name = opt13.pdb
REMARK  17 active torsions:
REMARK  status: ('A' for Active; 'I' for Inactive)
REMARK    1  A    between atoms: C_6  and  O_10
REMARK    2  A    between atoms: C_7  and  C_12
REMARK    3  A    between atoms: C_13  and  O_16
REMARK    4  A    between atoms: O_16  and  C_19
REMARK    5  A    between atoms: C_17  and  O_20
REMARK    6  A    between atoms: C_21  and  O_24
REMARK    7  A    between atoms: C_23  and  O_26
REMARK    8  A    between atoms: O_24  and  C_28
REMARK    9  A    between atoms: C_25  and  C_30
REMARK   10  A    between atoms: C_27  and  O_31
REMARK   11  A    between atoms: C_29  and  O_32
REMARK   12  A    between atoms: C_30  and  O_33
REMARK   13  A    between atoms: O_33  and  C_34
REMARK   14  A    between atoms: C_36  and  O_38
REMARK   15  A    between atoms: C_37  and  C_41
REMARK   16  A    between atoms: C_39  and  O_42
REMARK   17  A    between atoms: C_40  and  O_43
REMARK                            x       y       z     vdW  Elec       q    Type
REMARK                         _______ _______ _______ _____ _____    ______ ____
ROOT
ATOM      1  C   UNL     1       8.444  14.518  43.275  0.00  0.00    +0.000 C 
ATOM      2  O   UNL     1       7.356  15.181  42.583  0.00  0.00    +0.000 OA
ATOM      3  C   UNL     1       7.908  13.239  43.952  0.00  0.00    +0.000 C 
ATOM      4  C   UNL     1       6.716  14.394  41.540  0.00  0.00    +0.000 C 
ATOM      5  C   UNL     1       7.140  12.341  42.952  0.00  0.00    +0.000 C 
ATOM      6  C   UNL     1       6.068  13.146  42.180  0.00  0.00    +0.000 C 
ENDROOT
BRANCH   3   7
ATOM      7  O   UNL     1       7.036  13.644  45.012  0.00  0.00    +0.000 OA
ATOM      8  H   UNL     1       7.593  14.059  45.696  0.00  0.00    +0.000 HD
ENDBRANCH   3   7
BRANCH   5   9
ATOM      9  O   UNL     1       6.506  11.292  43.685  0.00  0.00    +0.000 OA
ATOM     10  H   UNL     1       7.230  10.784  44.100  0.00  0.00    +0.000 HD
ENDBRANCH   5   9
BRANCH   6  11
ATOM     11  O   UNL     1       5.474  12.323  41.167  0.00  0.00    +0.000 OA
ATOM     12  H   UNL     1       5.044  11.554  41.584  0.00  0.00    +0.000 HD
ENDBRANCH   6  11
BRANCH   1  13
ATOM     13  O   UNL     1       9.512  14.200  42.350  0.00  0.00    +0.000 OA
BRANCH  13  24
ATOM     14  O   UNL     1      14.733  10.961  44.405  0.00  0.00    +0.000 OA
ATOM     15  C   UNL     1      14.478  12.145  44.277  0.00  0.00    +0.000 C 
ATOM     16  C   UNL     1      13.163  12.660  43.746  0.00  0.00    +0.000 A 
ATOM     17  C   UNL     1      15.535  13.166  44.632  0.00  0.00    +0.000 C 
ATOM     18  C   UNL     1      12.965  14.043  43.664  0.00  0.00    +0.000 A 
ATOM     19  C   UNL     1      12.126  11.806  43.340  0.00  0.00    +0.000 A 
ATOM     20  C   UNL     1      14.899  14.496  45.081  0.00  0.00    +0.000 C 
ATOM     21  O   UNL     1      13.947  14.921  44.079  0.00  0.00    +0.000 OA
ATOM     22  C   UNL     1      11.768  14.567  43.183  0.00  0.00    +0.000 A 
ATOM     23  C   UNL     1      10.918  12.334  42.879  0.00  0.00    +0.000 A 
ATOM     24  C   UNL     1      10.733  13.714  42.792  0.00  0.00    +0.000 A 
BRANCH  20  25
ATOM     25  C   UNL     1      15.939  15.590  45.254  0.00  0.00    +0.000 A 
ATOM     26  C   UNL     1      15.532  16.891  45.541  0.00  0.00    +0.000 A 
ATOM     27  C   UNL     1      17.294  15.314  45.101  0.00  0.00    +0.000 A 
ATOM     28  C   UNL     1      16.460  17.926  45.643  0.00  0.00    +0.000 A 
ATOM     29  C   UNL     1      18.232  16.338  45.217  0.00  0.00    +0.000 A 
ATOM     30  C   UNL     1      17.831  17.649  45.477  0.00  0.00    +0.000 A 
BRANCH  28  31
ATOM     31  O   UNL     1      15.967  19.175  45.881  0.00  0.00    +0.000 OA
ATOM     32  H   UNL     1      15.559  19.515  45.063  0.00  0.00    +0.000 HD
ENDBRANCH  28  31
BRANCH  30  33
ATOM     33  O   UNL     1      18.851  18.589  45.540  0.00  0.00    +0.000 OA
ATOM     34  C   UNL     1      19.487  19.061  46.749  0.00  0.00    +0.000 C 
ENDBRANCH  30  33
ENDBRANCH  20  25
BRANCH  19  35
ATOM     35  O   UNL     1      12.277  10.451  43.386  0.00  0.00    +0.000 OA
ATOM     36  H   UNL     1      11.626  10.104  44.043  0.00  0.00    +0.000 HD
ENDBRANCH  19  35
ENDBRANCH  13  24
ENDBRANCH   1  13
BRANCH   4  37
ATOM     37  C   UNL     1       5.685  15.290  40.838  0.00  0.00    +0.000 C 
BRANCH  37  38
ATOM     38  O   UNL     1       6.262  15.659  39.570  0.00  0.00    +0.000 OA
BRANCH  38  39
ATOM     39  C   UNL     1       6.457  17.069  39.352  0.00  0.00    +0.000 C 
ATOM     40  O   UNL     1       7.555  17.589  40.151  0.00  0.00    +0.000 OA
ATOM     41  C   UNL     1       6.781  17.253  37.856  0.00  0.00    +0.000 C 
ATOM     42  C   UNL     1       8.857  16.980  39.927  0.00  0.00    +0.000 C 
ATOM     43  C   UNL     1       8.140  16.589  37.532  0.00  0.00    +0.000 C 
ATOM     44  C   UNL     1       9.255  17.159  38.440  0.00  0.00    +0.000 C 
ATOM     45  C   UNL     1       9.860  17.661  40.879  0.00  0.00    +0.000 C 
BRANCH  44  46
ATOM     46  O   UNL     1      10.488  16.486  38.169  0.00  0.00    +0.000 OA
ATOM     47  H   UNL     1      10.369  15.937  37.375  0.00  0.00    +0.000 HD
ENDBRANCH  44  46
BRANCH  43  48
ATOM     48  O   UNL     1       8.451  16.817  36.159  0.00  0.00    +0.000 OA
ATOM     49  H   UNL     1       9.128  17.516  36.164  0.00  0.00    +0.000 HD
ENDBRANCH  43  48
BRANCH  41  50
ATOM     50  O   UNL     1       6.809  18.652  37.548  0.00  0.00    +0.000 OA
ATOM     51  H   UNL     1       7.640  19.022  37.903  0.00  0.00    +0.000 HD
ENDBRANCH  41  50
ENDBRANCH  38  39
ENDBRANCH  37  38
ENDBRANCH   4  37
TORSDOF 15
ENDMDL
MODEL 17
REMARK VINA RESULT:    -5.710      2.126      8.957
REMARK INTER + INTRA:         -11.896
REMARK INTER:                  -9.244
REMARK INTRA:                  -2.652
REMARK UNBOUND:                -2.515
REMARK  Name = opt13.pdb
REMARK  17 active torsions:
REMARK  status: ('A' for Active; 'I' for Inactive)
REMARK    1  A    between atoms: C_6  and  O_10
REMARK    2  A    between atoms: C_7  and  C_12
REMARK    3  A    between atoms: C_13  and  O_16
REMARK    4  A    between atoms: O_16  and  C_19
REMARK    5  A    between atoms: C_17  and  O_20
REMARK    6  A    between atoms: C_21  and  O_24
REMARK    7  A    between atoms: C_23  and  O_26
REMARK    8  A    between atoms: O_24  and  C_28
REMARK    9  A    between atoms: C_25  and  C_30
REMARK   10  A    between atoms: C_27  and  O_31
REMARK   11  A    between atoms: C_29  and  O_32
REMARK   12  A    between atoms: C_30  and  O_33
REMARK   13  A    between atoms: O_33  and  C_34
REMARK   14  A    between atoms: C_36  and  O_38
REMARK   15  A    between atoms: C_37  and  C_41
REMARK   16  A    between atoms: C_39  and  O_42
REMARK   17  A    between atoms: C_40  and  O_43
REMARK                            x       y       z     vdW  Elec       q    Type
REMARK                         _______ _______ _______ _____ _____    ______ ____
ROOT
ATOM      1  C   UNL     1      14.096  18.455  43.563  0.00  0.00    +0.000 C 
ATOM      2  O   UNL     1      14.340  17.188  44.224  0.00  0.00    +0.000 OA
ATOM      3  C   UNL     1      15.238  19.434  43.908  0.00  0.00    +0.000 C 
ATOM      4  C   UNL     1      15.583  16.528  43.856  0.00  0.00    +0.000 C 
ATOM      5  C   UNL     1      16.629  18.816  43.623  0.00  0.00    +0.000 C 
ATOM      6  C   UNL     1      16.770  17.421  44.277  0.00  0.00    +0.000 C 
ENDROOT
BRANCH   3   7
ATOM      7  O   UNL     1      15.124  19.757  45.298  0.00  0.00    +0.000 OA
ATOM      8  H   UNL     1      16.028  19.909  45.629  0.00  0.00    +0.000 HD
ENDBRANCH   3   7
BRANCH   5   9
ATOM      9  O   UNL     1      17.626  19.690  44.153  0.00  0.00    +0.000 OA
ATOM     10  H   UNL     1      17.142  20.361  44.673  0.00  0.00    +0.000 HD
ENDBRANCH   5   9
BRANCH   6  11
ATOM     11  O   UNL     1      18.008  16.818  43.879  0.00  0.00    +0.000 OA
ATOM     12  H   UNL     1      18.433  16.407  44.654  0.00  0.00    +0.000 HD
ENDBRANCH   6  11
BRANCH   1  13
ATOM     13  O   UNL     1      13.999  18.265  42.130  0.00  0.00    +0.000 OA
BRANCH  13  24
ATOM     14  O   UNL     1       8.528  18.114  38.663  0.00  0.00    +0.000 OA
ATOM     15  C   UNL     1       8.938  17.467  39.610  0.00  0.00    +0.000 C 
ATOM     16  C   UNL     1      10.290  17.686  40.245  0.00  0.00    +0.000 A 
ATOM     17  C   UNL     1       8.076  16.359  40.171  0.00  0.00    +0.000 C 
ATOM     18  C   UNL     1      10.652  16.903  41.346  0.00  0.00    +0.000 A 
ATOM     19  C   UNL     1      11.194  18.653  39.778  0.00  0.00    +0.000 A 
ATOM     20  C   UNL     1       8.358  16.135  41.670  0.00  0.00    +0.000 C 
ATOM     21  O   UNL     1       9.782  15.959  41.856  0.00  0.00    +0.000 OA
ATOM     22  C   UNL     1      11.886  17.069  41.967  0.00  0.00    +0.000 A 
ATOM     23  C   UNL     1      12.424  18.833  40.418  0.00  0.00    +0.000 A 
ATOM     24  C   UNL     1      12.780  18.041  41.509  0.00  0.00    +0.000 A 
BRANCH  20  25
ATOM     25  C   UNL     1       7.646  14.903  42.201  0.00  0.00    +0.000 A 
ATOM     26  C   UNL     1       6.905  14.987  43.378  0.00  0.00    +0.000 A 
ATOM     27  C   UNL     1       7.747  13.682  41.541  0.00  0.00    +0.000 A 
ATOM     28  C   UNL     1       6.293  13.859  43.921  0.00  0.00    +0.000 A 
ATOM     29  C   UNL     1       7.126  12.552  42.067  0.00  0.00    +0.000 A 
ATOM     30  C   UNL     1       6.404  12.620  43.259  0.00  0.00    +0.000 A 
BRANCH  28  31
ATOM     31  O   UNL     1       5.627  14.026  45.100  0.00  0.00    +0.000 OA
ATOM     32  H   UNL     1       5.544  13.161  45.540  0.00  0.00    +0.000 HD
ENDBRANCH  28  31
BRANCH  30  33
ATOM     33  O   UNL     1       5.856  11.424  43.702  0.00  0.00    +0.000 OA
ATOM     34  C   UNL     1       6.451  10.116  43.540  0.00  0.00    +0.000 C 
ENDBRANCH  30  33
ENDBRANCH  20  25
BRANCH  19  35
ATOM     35  O   UNL     1      10.893  19.430  38.698  0.00  0.00    +0.000 OA
ATOM     36  H   UNL     1      10.796  18.829  37.921  0.00  0.00    +0.000 HD
ENDBRANCH  19  35
ENDBRANCH  13  24
ENDBRANCH   1  13
BRANCH   4  37
ATOM     37  C   UNL     1      15.611  15.157  44.550  0.00  0.00    +0.000 C 
BRANCH  37  38
ATOM     38  O   UNL     1      14.264  14.896  44.991  0.00  0.00    +0.000 OA
BRANCH  38  39
ATOM     39  C   UNL     1      13.914  13.510  45.163  0.00  0.00    +0.000 C 
ATOM     40  O   UNL     1      12.475  13.330  45.268  0.00  0.00    +0.000 OA
ATOM     41  C   UNL     1      14.435  12.756  43.924  0.00  0.00    +0.000 C 
ATOM     42  C   UNL     1      11.685  13.790  44.136  0.00  0.00    +0.000 C 
ATOM     43  C   UNL     1      13.668  13.228  42.666  0.00  0.00    +0.000 C 
ATOM     44  C   UNL     1      12.144  13.043  42.858  0.00  0.00    +0.000 C 
ATOM     45  C   UNL     1      10.203  13.522  44.461  0.00  0.00    +0.000 C 
BRANCH  44  46
ATOM     46  O   UNL     1      11.450  13.546  41.711  0.00  0.00    +0.000 OA
ATOM     47  H   UNL     1      12.043  14.153  41.236  0.00  0.00    +0.000 HD
ENDBRANCH  44  46
BRANCH  43  48
ATOM     48  O   UNL     1      14.122  12.481  41.539  0.00  0.00    +0.000 OA
ATOM     49  H   UNL     1      13.475  11.762  41.433  0.00  0.00    +0.000 HD
ENDBRANCH  43  48
BRANCH  41  50
ATOM     50  O   UNL     1      14.270  11.347  44.125  0.00  0.00    +0.000 OA
ATOM     51  H   UNL     1      14.892  10.883  43.532  0.00  0.00    +0.000 HD
ENDBRANCH  41  50
ENDBRANCH  38  39
ENDBRANCH  37  38
ENDBRANCH   4  37
TORSDOF 15
ENDMDL
MODEL 18
REMARK VINA RESULT:    -5.649      1.795      2.832
REMARK INTER + INTRA:         -11.797
REMARK INTER:                  -9.190
REMARK INTRA:                  -2.606
REMARK UNBOUND:                -2.515
REMARK  Name = opt13.pdb
REMARK  17 active torsions:
REMARK  status: ('A' for Active; 'I' for Inactive)
REMARK    1  A    between atoms: C_6  and  O_10
REMARK    2  A    between atoms: C_7  and  C_12
REMARK    3  A    between atoms: C_13  and  O_16
REMARK    4  A    between atoms: O_16  and  C_19
REMARK    5  A    between atoms: C_17  and  O_20
REMARK    6  A    between atoms: C_21  and  O_24
REMARK    7  A    between atoms: C_23  and  O_26
REMARK    8  A    between atoms: O_24  and  C_28
REMARK    9  A    between atoms: C_25  and  C_30
REMARK   10  A    between atoms: C_27  and  O_31
REMARK   11  A    between atoms: C_29  and  O_32
REMARK   12  A    between atoms: C_30  and  O_33
REMARK   13  A    between atoms: O_33  and  C_34
REMARK   14  A    between atoms: C_36  and  O_38
REMARK   15  A    between atoms: C_37  and  C_41
REMARK   16  A    between atoms: C_39  and  O_42
REMARK   17  A    between atoms: C_40  and  O_43
REMARK                            x       y       z     vdW  Elec       q    Type
REMARK                         _______ _______ _______ _____ _____    ______ ____
ROOT
ATOM      1  C   UNL     1       8.214  16.706  42.155  0.00  0.00    +0.000 C 
ATOM      2  O   UNL     1       8.858  17.631  43.067  0.00  0.00    +0.000 OA
ATOM      3  C   UNL     1       7.198  17.477  41.286  0.00  0.00    +0.000 C 
ATOM      4  C   UNL     1       9.590  18.716  42.434  0.00  0.00    +0.000 C 
ATOM      5  C   UNL     1       7.846  18.708  40.605  0.00  0.00    +0.000 C 
ATOM      6  C   UNL     1       8.600  19.587  41.631  0.00  0.00    +0.000 C 
ENDROOT
BRANCH   3   7
ATOM      7  O   UNL     1       6.131  17.900  42.141  0.00  0.00    +0.000 OA
ATOM      8  H   UNL     1       6.538  18.366  42.895  0.00  0.00    +0.000 HD
ENDBRANCH   3   7
BRANCH   5   9
ATOM      9  O   UNL     1       6.811  19.479  39.992  0.00  0.00    +0.000 OA
ATOM     10  H   UNL     1       6.584  19.008  39.167  0.00  0.00    +0.000 HD
ENDBRANCH   5   9
BRANCH   6  11
ATOM     11  O   UNL     1       9.304  20.636  40.951  0.00  0.00    +0.000 OA
ATOM     12  H   UNL     1       8.855  21.487  41.114  0.00  0.00    +0.000 HD
ENDBRANCH   6  11
BRANCH   1  13
ATOM     13  O   UNL     1       9.201  16.046  41.326  0.00  0.00    +0.000 OA
BRANCH  13  24
ATOM     14  O   UNL     1      11.850  10.589  43.603  0.00  0.00    +0.000 OA
ATOM     15  C   UNL     1      12.276  11.715  43.421  0.00  0.00    +0.000 C 
ATOM     16  C   UNL     1      11.446  12.837  42.847  0.00  0.00    +0.000 A 
ATOM     17  C   UNL     1      13.721  12.015  43.750  0.00  0.00    +0.000 C 
ATOM     18  C   UNL     1      12.029  14.101  42.703  0.00  0.00    +0.000 A 
ATOM     19  C   UNL     1      10.108  12.663  42.460  0.00  0.00    +0.000 A 
ATOM     20  C   UNL     1      13.912  13.497  44.132  0.00  0.00    +0.000 C 
ATOM     21  O   UNL     1      13.334  14.324  43.097  0.00  0.00    +0.000 OA
ATOM     22  C   UNL     1      11.303  15.168  42.181  0.00  0.00    +0.000 A 
ATOM     23  C   UNL     1       9.375  13.742  41.957  0.00  0.00    +0.000 A 
ATOM     24  C   UNL     1       9.967  14.996  41.809  0.00  0.00    +0.000 A 
BRANCH  20  25
ATOM     25  C   UNL     1      15.381  13.858  44.276  0.00  0.00    +0.000 A 
ATOM     26  C   UNL     1      16.173  13.994  43.138  0.00  0.00    +0.000 A 
ATOM     27  C   UNL     1      15.951  14.029  45.534  0.00  0.00    +0.000 A 
ATOM     28  C   UNL     1      17.536  14.263  43.243  0.00  0.00    +0.000 A 
ATOM     29  C   UNL     1      17.310  14.315  45.649  0.00  0.00    +0.000 A 
ATOM     30  C   UNL     1      18.118  14.426  44.516  0.00  0.00    +0.000 A 
BRANCH  28  31
ATOM     31  O   UNL     1      18.243  14.333  42.078  0.00  0.00    +0.000 OA
ATOM     32  H   UNL     1      18.195  13.470  41.628  0.00  0.00    +0.000 HD
ENDBRANCH  28  31
BRANCH  30  33
ATOM     33  O   UNL     1      19.461  14.682  44.756  0.00  0.00    +0.000 OA
ATOM     34  C   UNL     1      20.086  15.985  44.732  0.00  0.00    +0.000 C 
ENDBRANCH  30  33
ENDBRANCH  20  25
BRANCH  19  35
ATOM     35  O   UNL     1       9.501  11.447  42.566  0.00  0.00    +0.000 OA
ATOM     36  H   UNL     1       8.528  11.607  42.626  0.00  0.00    +0.000 HD
ENDBRANCH  19  35
ENDBRANCH  13  24
ENDBRANCH   1  13
BRANCH   4  37
ATOM     37  C   UNL     1      10.303  19.511  43.538  0.00  0.00    +0.000 C 
BRANCH  37  38
ATOM     38  O   UNL     1      11.670  19.669  43.108  0.00  0.00    +0.000 OA
BRANCH  38  39
ATOM     39  C   UNL     1      12.444  18.459  43.010  0.00  0.00    +0.000 C 
ATOM     40  O   UNL     1      13.427  18.536  41.940  0.00  0.00    +0.000 OA
ATOM     41  C   UNL     1      13.169  18.277  44.358  0.00  0.00    +0.000 C 
ATOM     42  C   UNL     1      14.402  19.612  42.039  0.00  0.00    +0.000 C 
ATOM     43  C   UNL     1      14.198  19.416  44.554  0.00  0.00    +0.000 C 
ATOM     44  C   UNL     1      15.188  19.466  43.367  0.00  0.00    +0.000 C 
ATOM     45  C   UNL     1      15.324  19.520  40.808  0.00  0.00    +0.000 C 
BRANCH  44  46
ATOM     46  O   UNL     1      16.087  20.566  43.537  0.00  0.00    +0.000 OA
ATOM     47  H   UNL     1      16.157  20.761  44.487  0.00  0.00    +0.000 HD
ENDBRANCH  44  46
BRANCH  43  48
ATOM     48  O   UNL     1      14.898  19.201  45.778  0.00  0.00    +0.000 OA
ATOM     49  H   UNL     1      15.444  19.997  45.901  0.00  0.00    +0.000 HD
ENDBRANCH  43  48
BRANCH  41  50
ATOM     50  O   UNL     1      13.814  16.997  44.377  0.00  0.00    +0.000 OA
ATOM     51  H   UNL     1      13.840  16.659  43.461  0.00  0.00    +0.000 HD
ENDBRANCH  41  50
ENDBRANCH  38  39
ENDBRANCH  37  38
ENDBRANCH   4  37
TORSDOF 15
ENDMDL
MODEL 19
REMARK VINA RESULT:    -5.604      2.472      8.726
REMARK INTER + INTRA:         -11.722
REMARK INTER:                  -8.621
REMARK INTRA:                  -3.101
REMARK UNBOUND:                -2.515
REMARK  Name = opt13.pdb
REMARK  17 active torsions:
REMARK  status: ('A' for Active; 'I' for Inactive)
REMARK    1  A    between atoms: C_6  and  O_10
REMARK    2  A    between atoms: C_7  and  C_12
REMARK    3  A    between atoms: C_13  and  O_16
REMARK    4  A    between atoms: O_16  and  C_19
REMARK    5  A    between atoms: C_17  and  O_20
REMARK    6  A    between atoms: C_21  and  O_24
REMARK    7  A    between atoms: C_23  and  O_26
REMARK    8  A    between atoms: O_24  and  C_28
REMARK    9  A    between atoms: C_25  and  C_30
REMARK   10  A    between atoms: C_27  and  O_31
REMARK   11  A    between atoms: C_29  and  O_32
REMARK   12  A    between atoms: C_30  and  O_33
REMARK   13  A    between atoms: O_33  and  C_34
REMARK   14  A    between atoms: C_36  and  O_38
REMARK   15  A    between atoms: C_37  and  C_41
REMARK   16  A    between atoms: C_39  and  O_42
REMARK   17  A    between atoms: C_40  and  O_43
REMARK                            x       y       z     vdW  Elec       q    Type
REMARK                         _______ _______ _______ _____ _____    ______ ____
ROOT
ATOM      1  C   UNL     1      13.782  19.640  40.419  0.00  0.00    +0.000 C 
ATOM      2  O   UNL     1      13.289  19.451  41.769  0.00  0.00    +0.000 OA
ATOM      3  C   UNL     1      15.300  19.912  40.468  0.00  0.00    +0.000 C 
ATOM      4  C   UNL     1      13.888  18.344  42.497  0.00  0.00    +0.000 C 
ATOM      5  C   UNL     1      16.050  18.828  41.282  0.00  0.00    +0.000 C 
ATOM      6  C   UNL     1      15.398  18.614  42.669  0.00  0.00    +0.000 C 
ENDROOT
BRANCH   3   7
ATOM      7  O   UNL     1      15.490  21.194  41.075  0.00  0.00    +0.000 OA
ATOM      8  H   UNL     1      15.237  21.105  42.012  0.00  0.00    +0.000 HD
ENDBRANCH   3   7
BRANCH   5   9
ATOM      9  O   UNL     1      17.403  19.252  41.455  0.00  0.00    +0.000 OA
ATOM     10  H   UNL     1      17.485  20.088  40.956  0.00  0.00    +0.000 HD
ENDBRANCH   5   9
BRANCH   6  11
ATOM     11  O   UNL     1      16.025  17.511  43.338  0.00  0.00    +0.000 OA
ATOM     12  H   UNL     1      16.888  17.796  43.694  0.00  0.00    +0.000 HD
ENDBRANCH   6  11
BRANCH   1  13
ATOM     13  O   UNL     1      13.496  18.473  39.609  0.00  0.00    +0.000 OA
BRANCH  13  24
ATOM     14  O   UNL     1       7.510  17.729  37.244  0.00  0.00    +0.000 OA
ATOM     15  C   UNL     1       8.114  17.221  38.172  0.00  0.00    +0.000 C 
ATOM     16  C   UNL     1       9.544  17.557  38.518  0.00  0.00    +0.000 A 
ATOM     17  C   UNL     1       7.422  16.172  39.011  0.00  0.00    +0.000 C 
ATOM     18  C   UNL     1      10.135  16.931  39.622  0.00  0.00    +0.000 A 
ATOM     19  C   UNL     1      10.302  18.479  37.780  0.00  0.00    +0.000 A 
ATOM     20  C   UNL     1       7.976  16.150  40.450  0.00  0.00    +0.000 C 
ATOM     21  O   UNL     1       9.417  16.039  40.393  0.00  0.00    +0.000 OA
ATOM     22  C   UNL     1      11.450  17.210  39.982  0.00  0.00    +0.000 A 
ATOM     23  C   UNL     1      11.615  18.773  38.157  0.00  0.00    +0.000 A 
ATOM     24  C   UNL     1      12.198  18.139  39.254  0.00  0.00    +0.000 A 
BRANCH  20  25
ATOM     25  C   UNL     1       7.432  14.978  41.248  0.00  0.00    +0.000 A 
ATOM     26  C   UNL     1       7.895  14.749  42.542  0.00  0.00    +0.000 A 
ATOM     27  C   UNL     1       6.494  14.113  40.692  0.00  0.00    +0.000 A 
ATOM     28  C   UNL     1       7.460  13.646  43.274  0.00  0.00    +0.000 A 
ATOM     29  C   UNL     1       6.040  13.016  41.422  0.00  0.00    +0.000 A 
ATOM     30  C   UNL     1       6.519  12.763  42.708  0.00  0.00    +0.000 A 
BRANCH  28  31
ATOM     31  O   UNL     1       8.002  13.475  44.514  0.00  0.00    +0.000 OA
ATOM     32  H   UNL     1       7.854  14.285  45.036  0.00  0.00    +0.000 HD
ENDBRANCH  28  31
BRANCH  30  33
ATOM     33  O   UNL     1       6.018  11.624  43.324  0.00  0.00    +0.000 OA
ATOM     34  C   UNL     1       6.698  10.352  43.420  0.00  0.00    +0.000 C 
ENDBRANCH  30  33
ENDBRANCH  20  25
BRANCH  19  35
ATOM     35  O   UNL     1       9.776  19.102  36.686  0.00  0.00    +0.000 OA
ATOM     36  H   UNL     1       8.834  18.815  36.608  0.00  0.00    +0.000 HD
ENDBRANCH  19  35
ENDBRANCH  13  24
ENDBRANCH   1  13
BRANCH   4  37
ATOM     37  C   UNL     1      13.162  18.218  43.845  0.00  0.00    +0.000 C 
BRANCH  37  38
ATOM     38  O   UNL     1      13.042  16.807  44.113  0.00  0.00    +0.000 OA
BRANCH  38  39
ATOM     39  C   UNL     1      12.930  15.953  42.959  0.00  0.00    +0.000 C 
ATOM     40  O   UNL     1      14.097  15.099  42.809  0.00  0.00    +0.000 OA
ATOM     41  C   UNL     1      11.678  15.077  43.167  0.00  0.00    +0.000 C 
ATOM     42  C   UNL     1      14.390  14.208  43.922  0.00  0.00    +0.000 C 
ATOM     43  C   UNL     1      11.900  14.128  44.369  0.00  0.00    +0.000 C 
ATOM     44  C   UNL     1      13.175  13.277  44.163  0.00  0.00    +0.000 C 
ATOM     45  C   UNL     1      15.663  13.417  43.564  0.00  0.00    +0.000 C 
BRANCH  44  46
ATOM     46  O   UNL     1      13.397  12.456  45.313  0.00  0.00    +0.000 OA
ATOM     47  H   UNL     1      12.722  11.754  45.324  0.00  0.00    +0.000 HD
ENDBRANCH  44  46
BRANCH  43  48
ATOM     48  O   UNL     1      10.757  13.288  44.512  0.00  0.00    +0.000 OA
ATOM     49  H   UNL     1       9.998  13.895  44.552  0.00  0.00    +0.000 HD
ENDBRANCH  43  48
BRANCH  41  50
ATOM     50  O   UNL     1      11.419  14.333  41.969  0.00  0.00    +0.000 OA
ATOM     51  H   UNL     1      12.056  14.626  41.289  0.00  0.00    +0.000 HD
ENDBRANCH  41  50
ENDBRANCH  38  39
ENDBRANCH  37  38
ENDBRANCH   4  37
TORSDOF 15
ENDMDL
MODEL 20
REMARK VINA RESULT:    -5.414      2.140      3.158
REMARK INTER + INTRA:         -11.410
REMARK INTER:                  -8.618
REMARK INTRA:                  -2.791
REMARK UNBOUND:                -2.515
REMARK  Name = opt13.pdb
REMARK  17 active torsions:
REMARK  status: ('A' for Active; 'I' for Inactive)
REMARK    1  A    between atoms: C_6  and  O_10
REMARK    2  A    between atoms: C_7  and  C_12
REMARK    3  A    between atoms: C_13  and  O_16
REMARK    4  A    between atoms: O_16  and  C_19
REMARK    5  A    between atoms: C_17  and  O_20
REMARK    6  A    between atoms: C_21  and  O_24
REMARK    7  A    between atoms: C_23  and  O_26
REMARK    8  A    between atoms: O_24  and  C_28
REMARK    9  A    between atoms: C_25  and  C_30
REMARK   10  A    between atoms: C_27  and  O_31
REMARK   11  A    between atoms: C_29  and  O_32
REMARK   12  A    between atoms: C_30  and  O_33
REMARK   13  A    between atoms: O_33  and  C_34
REMARK   14  A    between atoms: C_36  and  O_38
REMARK   15  A    between atoms: C_37  and  C_41
REMARK   16  A    between atoms: C_39  and  O_42
REMARK   17  A    between atoms: C_40  and  O_43
REMARK                            x       y       z     vdW  Elec       q    Type
REMARK                         _______ _______ _______ _____ _____    ______ ____
ROOT
ATOM      1  C   UNL     1       9.268  12.558  43.293  0.00  0.00    +0.000 C 
ATOM      2  O   UNL     1       8.708  13.821  43.730  0.00  0.00    +0.000 OA
ATOM      3  C   UNL     1       8.182  11.752  42.551  0.00  0.00    +0.000 C 
ATOM      4  C   UNL     1       8.207  14.677  42.666  0.00  0.00    +0.000 C 
ATOM      5  C   UNL     1       7.518  12.585  41.427  0.00  0.00    +0.000 C 
ATOM      6  C   UNL     1       7.041  13.960  41.952  0.00  0.00    +0.000 C 
ENDROOT
BRANCH   3   7
ATOM      7  O   UNL     1       7.197  11.364  43.515  0.00  0.00    +0.000 OA
ATOM      8  H   UNL     1       6.640  12.147  43.683  0.00  0.00    +0.000 HD
ENDBRANCH   3   7
BRANCH   5   9
ATOM      9  O   UNL     1       6.397  11.854  40.928  0.00  0.00    +0.000 OA
ATOM     10  H   UNL     1       5.726  11.879  41.639  0.00  0.00    +0.000 HD
ENDBRANCH   5   9
BRANCH   6  11
ATOM     11  O   UNL     1       6.561  14.760  40.863  0.00  0.00    +0.000 OA
ATOM     12  H   UNL     1       5.653  15.058  41.054  0.00  0.00    +0.000 HD
ENDBRANCH   6  11
BRANCH   1  13
ATOM     13  O   UNL     1      10.414  12.783  42.436  0.00  0.00    +0.000 OA
BRANCH  13  24
ATOM     14  O   UNL     1      16.264  12.572  45.213  0.00  0.00    +0.000 OA
ATOM     15  C   UNL     1      15.608  13.465  44.708  0.00  0.00    +0.000 C 
ATOM     16  C   UNL     1      14.244  13.253  44.097  0.00  0.00    +0.000 A 
ATOM     17  C   UNL     1      16.188  14.860  44.651  0.00  0.00    +0.000 C 
ATOM     18  C   UNL     1      13.565  14.355  43.565  0.00  0.00    +0.000 A 
ATOM     19  C   UNL     1      13.627  11.993  44.048  0.00  0.00    +0.000 A 
ATOM     20  C   UNL     1      15.076  15.928  44.658  0.00  0.00    +0.000 C 
ATOM     21  O   UNL     1      14.123  15.617  43.617  0.00  0.00    +0.000 OA
ATOM     22  C   UNL     1      12.305  14.210  42.993  0.00  0.00    +0.000 A 
ATOM     23  C   UNL     1      12.352  11.855  43.493  0.00  0.00    +0.000 A 
ATOM     24  C   UNL     1      11.686  12.958  42.958  0.00  0.00    +0.000 A 
BRANCH  20  25
ATOM     25  C   UNL     1      15.629  17.321  44.407  0.00  0.00    +0.000 A 
ATOM     26  C   UNL     1      15.834  18.187  45.479  0.00  0.00    +0.000 A 
ATOM     27  C   UNL     1      15.908  17.753  43.114  0.00  0.00    +0.000 A 
ATOM     28  C   UNL     1      16.281  19.490  45.271  0.00  0.00    +0.000 A 
ATOM     29  C   UNL     1      16.371  19.049  42.897  0.00  0.00    +0.000 A 
ATOM     30  C   UNL     1      16.553  19.932  43.962  0.00  0.00    +0.000 A 
BRANCH  28  31
ATOM     31  O   UNL     1      16.410  20.281  46.375  0.00  0.00    +0.000 OA
ATOM     32  H   UNL     1      17.319  20.202  46.716  0.00  0.00    +0.000 HD
ENDBRANCH  28  31
BRANCH  30  33
ATOM     33  O   UNL     1      16.988  21.206  43.620  0.00  0.00    +0.000 OA
ATOM     34  C   UNL     1      18.059  21.510  42.698  0.00  0.00    +0.000 C 
ENDBRANCH  30  33
ENDBRANCH  20  25
BRANCH  19  35
ATOM     35  O   UNL     1      14.256  10.886  44.538  0.00  0.00    +0.000 OA
ATOM     36  H   UNL     1      14.277  10.215  43.814  0.00  0.00    +0.000 HD
ENDBRANCH  19  35
ENDBRANCH  13  24
ENDBRANCH   1  13
BRANCH   4  37
ATOM     37  C   UNL     1       7.774  16.009  43.297  0.00  0.00    +0.000 C 
BRANCH  37  38
ATOM     38  O   UNL     1       8.983  16.745  43.566  0.00  0.00    +0.000 OA
BRANCH  38  39
ATOM     39  C   UNL     1       9.049  18.074  43.016  0.00  0.00    +0.000 C 
ATOM     40  O   UNL     1      10.181  18.818  43.545  0.00  0.00    +0.000 OA
ATOM     41  C   UNL     1       9.203  17.924  41.490  0.00  0.00    +0.000 C 
ATOM     42  C   UNL     1      11.495  18.238  43.313  0.00  0.00    +0.000 C 
ATOM     43  C   UNL     1      10.568  17.270  41.166  0.00  0.00    +0.000 C 
ATOM     44  C   UNL     1      11.724  18.089  41.788  0.00  0.00    +0.000 C 
ATOM     45  C   UNL     1      12.537  19.169  43.965  0.00  0.00    +0.000 C 
BRANCH  44  46
ATOM     46  O   UNL     1      12.970  17.432  41.532  0.00  0.00    +0.000 OA
ATOM     47  H   UNL     1      13.016  16.635  42.089  0.00  0.00    +0.000 HD
ENDBRANCH  44  46
BRANCH  43  48
ATOM     48  O   UNL     1      10.718  17.190  39.751  0.00  0.00    +0.000 OA
ATOM     49  H   UNL     1      11.579  16.758  39.611  0.00  0.00    +0.000 HD
ENDBRANCH  43  48
BRANCH  41  50
ATOM     50  O   UNL     1       9.095  19.214  40.876  0.00  0.00    +0.000 OA
ATOM     51  H   UNL     1       8.277  19.635  41.202  0.00  0.00    +0.000 HD
ENDBRANCH  41  50
ENDBRANCH  38  39
ENDBRANCH  37  38
ENDBRANCH   4  37
TORSDOF 15
ENDMDL
