MODEL 1
REMARK VINA RESULT:    -5.540      0.000      0.000
REMARK INTER + INTRA:          -5.540
REMARK INTER:                  -5.540
REMARK INTRA:                   0.000
REMARK UNBOUND:                 0.000
REMARK  Name = opt86.pdb
REMARK  2 active torsions:
REMARK  status: ('A' for Active; 'I' for Inactive)
REMARK    1  A    between atoms: N_3  and  C_6
REMARK    2  A    between atoms: N_12  and  C_13
REMARK                            x       y       z     vdW  Elec       q    Type
REMARK                         _______ _______ _______ _____ _____    ______ ____
ROOT
ATOM      1  O   UNL     1      12.895  12.205  44.592  0.00  0.00    +0.000 OA
ATOM      2  C   UNL     1      13.989  12.688  44.376  0.00  0.00    +0.000 A 
ATOM      3  N   UNL     1      14.503  12.859  43.125  0.00  0.00    +0.000 N 
ATOM      4  N   UNL     1      14.769  13.090  45.402  0.00  0.00    +0.000 N 
ATOM      5  C   UNL     1      15.756  13.414  42.887  0.00  0.00    +0.000 A 
ATOM      6  C   UNL     1      13.742  12.457  41.930  0.00  0.00    +0.000 C 
ATOM      7  C   UNL     1      16.000  13.641  45.347  0.00  0.00    +0.000 A 
ATOM      8  N   UNL     1      16.619  13.776  42.286  0.00  0.00    +0.000 NA
ATOM      9  C   UNL     1      16.508  13.803  43.971  0.00  0.00    +0.000 A 
ATOM     10  O   UNL     1      16.586  13.954  46.365  0.00  0.00    +0.000 OA
ATOM     11  C   UNL     1      17.599  14.201  41.973  0.00  0.00    +0.000 A 
ATOM     12  N   UNL     1      17.621  14.271  43.340  0.00  0.00    +0.000 N 
ATOM     13  C   UNL     1      18.781  14.811  44.058  0.00  0.00    +0.000 C 
ATOM     14  H   UNL     1      14.385  12.961  46.325  0.00  0.00    +0.000 HD
ENDROOT
TORSDOF 0
ENDMDL
MODEL 2
REMARK VINA RESULT:    -4.921      2.319      2.802
REMARK INTER + INTRA:          -4.921
REMARK INTER:                  -4.921
REMARK INTRA:                   0.000
REMARK UNBOUND:                 0.000
REMARK  Name = opt86.pdb
REMARK  2 active torsions:
REMARK  status: ('A' for Active; 'I' for Inactive)
REMARK    1  A    between atoms: N_3  and  C_6
REMARK    2  A    between atoms: N_12  and  C_13
REMARK                            x       y       z     vdW  Elec       q    Type
REMARK                         _______ _______ _______ _____ _____    ______ ____
ROOT
ATOM      1  O   UNL     1      13.409  11.329  44.494  0.00  0.00    +0.000 OA
ATOM      2  C   UNL     1      13.857  12.450  44.626  0.00  0.00    +0.000 A 
ATOM      3  N   UNL     1      13.139  13.582  44.377  0.00  0.00    +0.000 N 
ATOM      4  N   UNL     1      15.130  12.629  45.039  0.00  0.00    +0.000 N 
ATOM      5  C   UNL     1      13.661  14.862  44.533  0.00  0.00    +0.000 A 
ATOM      6  C   UNL     1      11.741  13.511  43.921  0.00  0.00    +0.000 C 
ATOM      7  C   UNL     1      15.787  13.792  45.238  0.00  0.00    +0.000 A 
ATOM      8  N   UNL     1      13.667  15.975  44.522  0.00  0.00    +0.000 NA
ATOM      9  C   UNL     1      14.964  14.984  44.955  0.00  0.00    +0.000 A 
ATOM     10  O   UNL     1      16.942  13.795  45.615  0.00  0.00    +0.000 OA
ATOM     11  C   UNL     1      13.972  17.042  44.607  0.00  0.00    +0.000 A 
ATOM     12  N   UNL     1      15.089  16.340  44.974  0.00  0.00    +0.000 N 
ATOM     13  C   UNL     1      16.330  17.025  45.354  0.00  0.00    +0.000 C 
ATOM     14  H   UNL     1      15.657  11.789  45.222  0.00  0.00    +0.000 HD
ENDROOT
TORSDOF 0
ENDMDL
MODEL 3
REMARK VINA RESULT:    -4.911      2.259      4.592
REMARK INTER + INTRA:          -4.911
REMARK INTER:                  -4.911
REMARK INTRA:                   0.000
REMARK UNBOUND:                 0.000
REMARK  Name = opt86.pdb
REMARK  2 active torsions:
REMARK  status: ('A' for Active; 'I' for Inactive)
REMARK    1  A    between atoms: N_3  and  C_6
REMARK    2  A    between atoms: N_12  and  C_13
REMARK                            x       y       z     vdW  Elec       q    Type
REMARK                         _______ _______ _______ _____ _____    ______ ____
ROOT
ATOM      1  O   UNL     1      16.888  13.747  45.467  0.00  0.00    +0.000 OA
ATOM      2  C   UNL     1      15.722  13.753  45.128  0.00  0.00    +0.000 A 
ATOM      3  N   UNL     1      15.008  14.893  44.902  0.00  0.00    +0.000 N 
ATOM      4  N   UNL     1      15.059  12.589  44.954  0.00  0.00    +0.000 N 
ATOM      5  C   UNL     1      13.673  14.889  44.513  0.00  0.00    +0.000 A 
ATOM      6  C   UNL     1      15.626  16.220  45.061  0.00  0.00    +0.000 C 
ATOM      7  C   UNL     1      13.773  12.409  44.584  0.00  0.00    +0.000 A 
ATOM      8  N   UNL     1      12.690  15.320  44.218  0.00  0.00    +0.000 NA
ATOM      9  C   UNL     1      13.048  13.674  44.353  0.00  0.00    +0.000 A 
ATOM     10  O   UNL     1      13.311  11.292  44.468  0.00  0.00    +0.000 OA
ATOM     11  C   UNL     1      11.628  15.442  43.909  0.00  0.00    +0.000 A 
ATOM     12  N   UNL     1      11.802  14.087  43.988  0.00  0.00    +0.000 N 
ATOM     13  C   UNL     1      10.703  13.158  43.700  0.00  0.00    +0.000 C 
ATOM     14  H   UNL     1      15.590  11.749  45.122  0.00  0.00    +0.000 HD
ENDROOT
TORSDOF 0
ENDMDL
MODEL 4
REMARK VINA RESULT:    -4.753      2.571      3.501
REMARK INTER + INTRA:          -4.753
REMARK INTER:                  -4.753
REMARK INTRA:                   0.000
REMARK UNBOUND:                 0.000
REMARK  Name = opt86.pdb
REMARK  2 active torsions:
REMARK  status: ('A' for Active; 'I' for Inactive)
REMARK    1  A    between atoms: N_3  and  C_6
REMARK    2  A    between atoms: N_12  and  C_13
REMARK                            x       y       z     vdW  Elec       q    Type
REMARK                         _______ _______ _______ _____ _____    ______ ____
ROOT
ATOM      1  O   UNL     1      10.536  11.385  42.607  0.00  0.00    +0.000 OA
ATOM      2  C   UNL     1      11.498  11.942  43.096  0.00  0.00    +0.000 A 
ATOM      3  N   UNL     1      11.570  13.289  43.294  0.00  0.00    +0.000 N 
ATOM      4  N   UNL     1      12.577  11.224  43.477  0.00  0.00    +0.000 N 
ATOM      5  C   UNL     1      12.676  13.917  43.856  0.00  0.00    +0.000 A 
ATOM      6  C   UNL     1      10.454  14.172  42.917  0.00  0.00    +0.000 C 
ATOM      7  C   UNL     1      13.724  11.673  44.031  0.00  0.00    +0.000 A 
ATOM      8  N   UNL     1      13.294  14.763  44.232  0.00  0.00    +0.000 NA
ATOM      9  C   UNL     1      13.747  13.136  44.224  0.00  0.00    +0.000 A 
ATOM     10  O   UNL     1      14.615  10.901  44.324  0.00  0.00    +0.000 OA
ATOM     11  C   UNL     1      14.117  15.374  44.666  0.00  0.00    +0.000 A 
ATOM     12  N   UNL     1      14.591  14.090  44.706  0.00  0.00    +0.000 N 
ATOM     13  C   UNL     1      15.926  13.787  45.233  0.00  0.00    +0.000 C 
ATOM     14  H   UNL     1      12.520  10.229  43.328  0.00  0.00    +0.000 HD
ENDROOT
TORSDOF 0
ENDMDL
MODEL 5
REMARK VINA RESULT:    -4.570      2.842      5.003
REMARK INTER + INTRA:          -4.570
REMARK INTER:                  -4.570
REMARK INTRA:                   0.000
REMARK UNBOUND:                 0.000
REMARK  Name = opt86.pdb
REMARK  2 active torsions:
REMARK  status: ('A' for Active; 'I' for Inactive)
REMARK    1  A    between atoms: N_3  and  C_6
REMARK    2  A    between atoms: N_12  and  C_13
REMARK                            x       y       z     vdW  Elec       q    Type
REMARK                         _______ _______ _______ _____ _____    ______ ____
ROOT
ATOM      1  O   UNL     1      14.507  10.963  44.241  0.00  0.00    +0.000 OA
ATOM      2  C   UNL     1      13.716  11.879  44.141  0.00  0.00    +0.000 A 
ATOM      3  N   UNL     1      13.988  13.156  44.532  0.00  0.00    +0.000 N 
ATOM      4  N   UNL     1      12.489  11.663  43.619  0.00  0.00    +0.000 N 
ATOM      5  C   UNL     1      13.076  14.199  44.412  0.00  0.00    +0.000 A 
ATOM      6  C   UNL     1      15.293  13.509  45.116  0.00  0.00    +0.000 C 
ATOM      7  C   UNL     1      11.492  12.556  43.435  0.00  0.00    +0.000 A 
ATOM      8  N   UNL     1      12.693  15.240  44.496  0.00  0.00    +0.000 NA
ATOM      9  C   UNL     1      11.841  13.921  43.875  0.00  0.00    +0.000 A 
ATOM     10  O   UNL     1      10.433  12.212  42.949  0.00  0.00    +0.000 OA
ATOM     11  C   UNL     1      12.051  16.148  44.452  0.00  0.00    +0.000 A 
ATOM     12  N   UNL     1      11.266  15.154  43.933  0.00  0.00    +0.000 N 
ATOM     13  C   UNL     1       9.896  15.422  43.481  0.00  0.00    +0.000 C 
ATOM     14  H   UNL     1      12.292  10.718  43.331  0.00  0.00    +0.000 HD
ENDROOT
TORSDOF 0
ENDMDL
MODEL 6
REMARK VINA RESULT:    -4.518      2.381      2.884
REMARK INTER + INTRA:          -4.518
REMARK INTER:                  -4.518
REMARK INTRA:                   0.000
REMARK UNBOUND:                 0.000
REMARK  Name = opt86.pdb
REMARK  2 active torsions:
REMARK  status: ('A' for Active; 'I' for Inactive)
REMARK    1  A    between atoms: N_3  and  C_6
REMARK    2  A    between atoms: N_12  and  C_13
REMARK                            x       y       z     vdW  Elec       q    Type
REMARK                         _______ _______ _______ _____ _____    ______ ____
ROOT
ATOM      1  O   UNL     1      11.055  13.492  44.561  0.00  0.00    +0.000 OA
ATOM      2  C   UNL     1      12.241  13.751  44.538  0.00  0.00    +0.000 A 
ATOM      3  N   UNL     1      12.738  15.016  44.645  0.00  0.00    +0.000 N 
ATOM      4  N   UNL     1      13.151  12.762  44.401  0.00  0.00    +0.000 N 
ATOM      5  C   UNL     1      14.099  15.304  44.618  0.00  0.00    +0.000 A 
ATOM      6  C   UNL     1      11.842  16.174  44.798  0.00  0.00    +0.000 C 
ATOM      7  C   UNL     1      14.496  12.867  44.354  0.00  0.00    +0.000 A 
ATOM      8  N   UNL     1      15.013  15.937  44.646  0.00  0.00    +0.000 NA
ATOM      9  C   UNL     1      14.979  14.257  44.475  0.00  0.00    +0.000 A 
ATOM     10  O   UNL     1      15.192  11.880  44.225  0.00  0.00    +0.000 OA
ATOM     11  C   UNL     1      16.069  16.288  44.636  0.00  0.00    +0.000 A 
ATOM     12  N   UNL     1      16.163  14.930  44.489  0.00  0.00    +0.000 N 
ATOM     13  C   UNL     1      17.464  14.266  44.352  0.00  0.00    +0.000 C 
ATOM     14  H   UNL     1      12.779  11.829  44.322  0.00  0.00    +0.000 HD
ENDROOT
TORSDOF 0
ENDMDL
MODEL 7
REMARK VINA RESULT:    -4.482      2.858      4.420
REMARK INTER + INTRA:          -4.482
REMARK INTER:                  -4.482
REMARK INTRA:                   0.000
REMARK UNBOUND:                 0.000
REMARK  Name = opt86.pdb
REMARK  2 active torsions:
REMARK  status: ('A' for Active; 'I' for Inactive)
REMARK    1  A    between atoms: N_3  and  C_6
REMARK    2  A    between atoms: N_12  and  C_13
REMARK                            x       y       z     vdW  Elec       q    Type
REMARK                         _______ _______ _______ _____ _____    ______ ____
ROOT
ATOM      1  O   UNL     1      11.968  17.369  44.743  0.00  0.00    +0.000 OA
ATOM      2  C   UNL     1      12.381  16.230  44.661  0.00  0.00    +0.000 A 
ATOM      3  N   UNL     1      13.702  15.901  44.713  0.00  0.00    +0.000 N 
ATOM      4  N   UNL     1      11.515  15.203  44.508  0.00  0.00    +0.000 N 
ATOM      5  C   UNL     1      14.165  14.592  44.618  0.00  0.00    +0.000 A 
ATOM      6  C   UNL     1      14.737  16.936  44.876  0.00  0.00    +0.000 C 
ATOM      7  C   UNL     1      11.795  13.887  44.399  0.00  0.00    +0.000 A 
ATOM      8  N   UNL     1      14.913  13.769  44.589  0.00  0.00    +0.000 NA
ATOM      9  C   UNL     1      13.239  13.588  44.462  0.00  0.00    +0.000 A 
ATOM     10  O   UNL     1      10.903  13.073  44.265  0.00  0.00    +0.000 OA
ATOM     11  C   UNL     1      15.399  12.770  44.523  0.00  0.00    +0.000 A 
ATOM     12  N   UNL     1      14.061  12.503  44.407  0.00  0.00    +0.000 N 
ATOM     13  C   UNL     1      13.570  11.133  44.229  0.00  0.00    +0.000 C 
ATOM     14  H   UNL     1      10.539  15.451  44.471  0.00  0.00    +0.000 HD
ENDROOT
TORSDOF 0
ENDMDL
MODEL 8
REMARK VINA RESULT:    -4.392      2.981      4.804
REMARK INTER + INTRA:          -4.392
REMARK INTER:                  -4.392
REMARK INTRA:                   0.000
REMARK UNBOUND:                 0.000
REMARK  Name = opt86.pdb
REMARK  2 active torsions:
REMARK  status: ('A' for Active; 'I' for Inactive)
REMARK    1  A    between atoms: N_3  and  C_6
REMARK    2  A    between atoms: N_12  and  C_13
REMARK                            x       y       z     vdW  Elec       q    Type
REMARK                         _______ _______ _______ _____ _____    ______ ____
ROOT
ATOM      1  O   UNL     1      15.970  13.249  44.920  0.00  0.00    +0.000 OA
ATOM      2  C   UNL     1      14.831  13.611  44.704  0.00  0.00    +0.000 A 
ATOM      3  N   UNL     1      13.801  12.752  44.461  0.00  0.00    +0.000 N 
ATOM      4  N   UNL     1      14.526  14.927  44.696  0.00  0.00    +0.000 N 
ATOM      5  C   UNL     1      12.499  13.175  44.215  0.00  0.00    +0.000 A 
ATOM      6  C   UNL     1      14.015  11.295  44.443  0.00  0.00    +0.000 C 
ATOM      7  C   UNL     1      13.325  15.502  44.475  0.00  0.00    +0.000 A 
ATOM      8  N   UNL     1      11.413  13.076  43.993  0.00  0.00    +0.000 NA
ATOM      9  C   UNL     1      12.247  14.527  44.218  0.00  0.00    +0.000 A 
ATOM     10  O   UNL     1      13.202  16.711  44.500  0.00  0.00    +0.000 OA
ATOM     11  C   UNL     1      10.342  13.294  43.783  0.00  0.00    +0.000 A 
ATOM     12  N   UNL     1      10.913  14.528  43.943  0.00  0.00    +0.000 N 
ATOM     13  C   UNL     1      10.121  15.756  43.817  0.00  0.00    +0.000 C 
ATOM     14  H   UNL     1      15.290  15.558  44.877  0.00  0.00    +0.000 HD
ENDROOT
TORSDOF 0
ENDMDL
MODEL 9
REMARK VINA RESULT:    -4.367      2.626      3.455
REMARK INTER + INTRA:          -4.367
REMARK INTER:                  -4.367
REMARK INTRA:                   0.000
REMARK UNBOUND:                 0.000
REMARK  Name = opt86.pdb
REMARK  2 active torsions:
REMARK  status: ('A' for Active; 'I' for Inactive)
REMARK    1  A    between atoms: N_3  and  C_6
REMARK    2  A    between atoms: N_12  and  C_13
REMARK                            x       y       z     vdW  Elec       q    Type
REMARK                         _______ _______ _______ _____ _____    ______ ____
ROOT
ATOM      1  O   UNL     1      11.218  11.333  43.210  0.00  0.00    +0.000 OA
ATOM      2  C   UNL     1      11.995  12.213  43.523  0.00  0.00    +0.000 A 
ATOM      3  N   UNL     1      11.611  13.487  43.818  0.00  0.00    +0.000 N 
ATOM      4  N   UNL     1      13.320  11.957  43.593  0.00  0.00    +0.000 N 
ATOM      5  C   UNL     1      12.509  14.488  44.176  0.00  0.00    +0.000 A 
ATOM      6  C   UNL     1      10.194  13.883  43.773  0.00  0.00    +0.000 C 
ATOM      7  C   UNL     1      14.317  12.806  43.920  0.00  0.00    +0.000 A 
ATOM      8  N   UNL     1      12.842  15.505  44.480  0.00  0.00    +0.000 NA
ATOM      9  C   UNL     1      13.845  14.170  44.230  0.00  0.00    +0.000 A 
ATOM     10  O   UNL     1      15.471  12.429  43.941  0.00  0.00    +0.000 OA
ATOM     11  C   UNL     1      13.460  16.383  44.774  0.00  0.00    +0.000 A 
ATOM     12  N   UNL     1      14.368  15.373  44.597  0.00  0.00    +0.000 N 
ATOM     13  C   UNL     1      15.805  15.598  44.789  0.00  0.00    +0.000 C 
ATOM     14  H   UNL     1      13.599  11.013  43.375  0.00  0.00    +0.000 HD
ENDROOT
TORSDOF 0
ENDMDL
MODEL 10
REMARK VINA RESULT:    -4.311      2.925      5.337
REMARK INTER + INTRA:          -4.311
REMARK INTER:                  -4.311
REMARK INTRA:                   0.000
REMARK UNBOUND:                 0.000
REMARK  Name = opt86.pdb
REMARK  2 active torsions:
REMARK  status: ('A' for Active; 'I' for Inactive)
REMARK    1  A    between atoms: N_3  and  C_6
REMARK    2  A    between atoms: N_12  and  C_13
REMARK                            x       y       z     vdW  Elec       q    Type
REMARK                         _______ _______ _______ _____ _____    ______ ____
ROOT
ATOM      1  O   UNL     1      15.470  12.500  44.496  0.00  0.00    +0.000 OA
ATOM      2  C   UNL     1      14.301  12.671  44.217  0.00  0.00    +0.000 A 
ATOM      3  N   UNL     1      13.694  13.892  44.229  0.00  0.00    +0.000 N 
ATOM      4  N   UNL     1      13.524  11.622  43.870  0.00  0.00    +0.000 N 
ATOM      5  C   UNL     1      12.354  14.079  43.907  0.00  0.00    +0.000 A 
ATOM      6  C   UNL     1      14.441  15.108  44.592  0.00  0.00    +0.000 C 
ATOM      7  C   UNL     1      12.217  11.628  43.534  0.00  0.00    +0.000 A 
ATOM      8  N   UNL     1      11.409  14.641  43.738  0.00  0.00    +0.000 NA
ATOM      9  C   UNL     1      11.611  12.973  43.563  0.00  0.00    +0.000 A 
ATOM     10  O   UNL     1      11.646  10.595  43.243  0.00  0.00    +0.000 OA
ATOM     11  C   UNL     1      10.355  14.912  43.504  0.00  0.00    +0.000 A 
ATOM     12  N   UNL     1      10.400  13.554  43.334  0.00  0.00    +0.000 N 
ATOM     13  C   UNL     1       9.209  12.796  42.937  0.00  0.00    +0.000 C 
ATOM     14  H   UNL     1      13.977  10.722  43.863  0.00  0.00    +0.000 HD
ENDROOT
TORSDOF 0
ENDMDL
MODEL 11
REMARK VINA RESULT:    -4.162      3.028      3.945
REMARK INTER + INTRA:          -4.162
REMARK INTER:                  -4.162
REMARK INTRA:                   0.000
REMARK UNBOUND:                 0.000
REMARK  Name = opt86.pdb
REMARK  2 active torsions:
REMARK  status: ('A' for Active; 'I' for Inactive)
REMARK    1  A    between atoms: N_3  and  C_6
REMARK    2  A    between atoms: N_12  and  C_13
REMARK                            x       y       z     vdW  Elec       q    Type
REMARK                         _______ _______ _______ _____ _____    ______ ____
ROOT
ATOM      1  O   UNL     1      10.258  16.245  43.656  0.00  0.00    +0.000 OA
ATOM      2  C   UNL     1      11.254  15.580  43.858  0.00  0.00    +0.000 A 
ATOM      3  N   UNL     1      11.252  14.218  43.915  0.00  0.00    +0.000 N 
ATOM      4  N   UNL     1      12.448  16.184  44.041  0.00  0.00    +0.000 N 
ATOM      5  C   UNL     1      12.398  13.465  44.146  0.00  0.00    +0.000 A 
ATOM      6  C   UNL     1      10.008  13.452  43.731  0.00  0.00    +0.000 C 
ATOM      7  C   UNL     1      13.646  15.607  44.276  0.00  0.00    +0.000 A 
ATOM      8  N   UNL     1      13.009  12.546  44.289  0.00  0.00    +0.000 NA
ATOM      9  C   UNL     1      13.586  14.133  44.327  0.00  0.00    +0.000 A 
ATOM     10  O   UNL     1      14.643  16.285  44.422  0.00  0.00    +0.000 OA
ATOM     11  C   UNL     1      13.852  11.842  44.467  0.00  0.00    +0.000 A 
ATOM     12  N   UNL     1      14.430  13.082  44.522  0.00  0.00    +0.000 N 
ATOM     13  C   UNL     1      15.865  13.244  44.782  0.00  0.00    +0.000 C 
ATOM     14  H   UNL     1      12.445  17.191  43.998  0.00  0.00    +0.000 HD
ENDROOT
TORSDOF 0
ENDMDL
MODEL 12
REMARK VINA RESULT:    -4.126      2.391      4.457
REMARK INTER + INTRA:          -4.126
REMARK INTER:                  -4.126
REMARK INTRA:                   0.000
REMARK UNBOUND:                 0.000
REMARK  Name = opt86.pdb
REMARK  2 active torsions:
REMARK  status: ('A' for Active; 'I' for Inactive)
REMARK    1  A    between atoms: N_3  and  C_6
REMARK    2  A    between atoms: N_12  and  C_13
REMARK                            x       y       z     vdW  Elec       q    Type
REMARK                         _______ _______ _______ _____ _____    ______ ____
ROOT
ATOM      1  O   UNL     1      17.841  15.190  45.138  0.00  0.00    +0.000 OA
ATOM      2  C   UNL     1      16.697  14.864  44.891  0.00  0.00    +0.000 A 
ATOM      3  N   UNL     1      15.646  15.731  44.910  0.00  0.00    +0.000 N 
ATOM      4  N   UNL     1      16.409  13.582  44.578  0.00  0.00    +0.000 N 
ATOM      5  C   UNL     1      14.339  15.348  44.625  0.00  0.00    +0.000 A 
ATOM      6  C   UNL     1      15.839  17.153  45.239  0.00  0.00    +0.000 C 
ATOM      7  C   UNL     1      15.206  13.047  44.280  0.00  0.00    +0.000 A 
ATOM      8  N   UNL     1      13.243  15.473  44.479  0.00  0.00    +0.000 NA
ATOM      9  C   UNL     1      14.104  14.029  44.314  0.00  0.00    +0.000 A 
ATOM     10  O   UNL     1      15.100  11.866  44.016  0.00  0.00    +0.000 OA
ATOM     11  C   UNL     1      12.166  15.286  44.273  0.00  0.00    +0.000 A 
ATOM     12  N   UNL     1      12.757  14.062  44.115  0.00  0.00    +0.000 N 
ATOM     13  C   UNL     1      11.970  12.875  43.760  0.00  0.00    +0.000 C 
ATOM     14  H   UNL     1      17.189  12.945  44.565  0.00  0.00    +0.000 HD
ENDROOT
TORSDOF 0
ENDMDL
MODEL 13
REMARK VINA RESULT:    -3.976      3.029      4.320
REMARK INTER + INTRA:          -3.976
REMARK INTER:                  -3.976
REMARK INTRA:                   0.000
REMARK UNBOUND:                 0.000
REMARK  Name = opt86.pdb
REMARK  2 active torsions:
REMARK  status: ('A' for Active; 'I' for Inactive)
REMARK    1  A    between atoms: N_3  and  C_6
REMARK    2  A    between atoms: N_12  and  C_13
REMARK                            x       y       z     vdW  Elec       q    Type
REMARK                         _______ _______ _______ _____ _____    ______ ____
ROOT
ATOM      1  O   UNL     1      13.933  11.649  44.594  0.00  0.00    +0.000 OA
ATOM      2  C   UNL     1      13.655  12.831  44.569  0.00  0.00    +0.000 A 
ATOM      3  N   UNL     1      14.573  13.825  44.727  0.00  0.00    +0.000 N 
ATOM      4  N   UNL     1      12.376  13.224  44.378  0.00  0.00    +0.000 N 
ATOM      5  C   UNL     1      14.244  15.176  44.697  0.00  0.00    +0.000 A 
ATOM      6  C   UNL     1      15.997  13.517  44.943  0.00  0.00    +0.000 C 
ATOM      7  C   UNL     1      11.890  14.482  44.324  0.00  0.00    +0.000 A 
ATOM      8  N   UNL     1      14.417  16.275  44.740  0.00  0.00    +0.000 NA
ATOM      9  C   UNL     1      12.926  15.518  44.501  0.00  0.00    +0.000 A 
ATOM     10  O   UNL     1      10.705  14.682  44.145  0.00  0.00    +0.000 OA
ATOM     11  C   UNL     1      14.276  17.379  44.737  0.00  0.00    +0.000 A 
ATOM     12  N   UNL     1      13.017  16.876  44.541  0.00  0.00    +0.000 N 
ATOM     13  C   UNL     1      11.857  17.762  44.392  0.00  0.00    +0.000 C 
ATOM     14  H   UNL     1      11.701  12.485  44.262  0.00  0.00    +0.000 HD
ENDROOT
TORSDOF 0
ENDMDL
MODEL 14
REMARK VINA RESULT:    -3.916      3.359      4.705
REMARK INTER + INTRA:          -3.916
REMARK INTER:                  -3.916
REMARK INTRA:                   0.000
REMARK UNBOUND:                 0.000
REMARK  Name = opt86.pdb
REMARK  2 active torsions:
REMARK  status: ('A' for Active; 'I' for Inactive)
REMARK    1  A    between atoms: N_3  and  C_6
REMARK    2  A    between atoms: N_12  and  C_13
REMARK                            x       y       z     vdW  Elec       q    Type
REMARK                         _______ _______ _______ _____ _____    ______ ____
ROOT
ATOM      1  O   UNL     1       8.626  13.566  42.845  0.00  0.00    +0.000 OA
ATOM      2  C   UNL     1       9.792  13.567  43.186  0.00  0.00    +0.000 A 
ATOM      3  N   UNL     1      10.470  14.692  43.549  0.00  0.00    +0.000 N 
ATOM      4  N   UNL     1      10.490  12.411  43.221  0.00  0.00    +0.000 N 
ATOM      5  C   UNL     1      11.805  14.682  43.939  0.00  0.00    +0.000 A 
ATOM      6  C   UNL     1       9.813  16.009  43.548  0.00  0.00    +0.000 C 
ATOM      7  C   UNL     1      11.781  12.227  43.570  0.00  0.00    +0.000 A 
ATOM      8  N   UNL     1      12.775  15.104  44.285  0.00  0.00    +0.000 NA
ATOM      9  C   UNL     1      12.467  13.476  43.954  0.00  0.00    +0.000 A 
ATOM     10  O   UNL     1      12.276  11.118  43.553  0.00  0.00    +0.000 OA
ATOM     11  C   UNL     1      13.833  15.220  44.610  0.00  0.00    +0.000 A 
ATOM     12  N   UNL     1      13.700  13.879  44.369  0.00  0.00    +0.000 N 
ATOM     13  C   UNL     1      14.827  12.957  44.547  0.00  0.00    +0.000 C 
ATOM     14  H   UNL     1       9.984  11.582  42.952  0.00  0.00    +0.000 HD
ENDROOT
TORSDOF 0
ENDMDL
MODEL 15
REMARK VINA RESULT:    -3.902      2.688      2.945
REMARK INTER + INTRA:          -3.902
REMARK INTER:                  -3.902
REMARK INTRA:                   0.000
REMARK UNBOUND:                 0.000
REMARK  Name = opt86.pdb
REMARK  2 active torsions:
REMARK  status: ('A' for Active; 'I' for Inactive)
REMARK    1  A    between atoms: N_3  and  C_6
REMARK    2  A    between atoms: N_12  and  C_13
REMARK                            x       y       z     vdW  Elec       q    Type
REMARK                         _______ _______ _______ _____ _____    ______ ____
ROOT
ATOM      1  O   UNL     1      11.238  13.425  44.508  0.00  0.00    +0.000 OA
ATOM      2  C   UNL     1      12.289  14.033  44.548  0.00  0.00    +0.000 A 
ATOM      3  N   UNL     1      13.510  13.432  44.482  0.00  0.00    +0.000 N 
ATOM      4  N   UNL     1      12.291  15.379  44.663  0.00  0.00    +0.000 N 
ATOM      5  C   UNL     1      14.708  14.137  44.527  0.00  0.00    +0.000 A 
ATOM      6  C   UNL     1      13.632  11.970  44.356  0.00  0.00    +0.000 C 
ATOM      7  C   UNL     1      13.354  16.209  44.723  0.00  0.00    +0.000 A 
ATOM      8  N   UNL     1      15.811  14.286  44.525  0.00  0.00    +0.000 NA
ATOM      9  C   UNL     1      14.650  15.506  44.647  0.00  0.00    +0.000 A 
ATOM     10  O   UNL     1      13.199  17.409  44.827  0.00  0.00    +0.000 OA
ATOM     11  C   UNL     1      16.827  14.739  44.554  0.00  0.00    +0.000 A 
ATOM     12  N   UNL     1      15.978  15.807  44.661  0.00  0.00    +0.000 N 
ATOM     13  C   UNL     1      16.489  17.177  44.788  0.00  0.00    +0.000 C 
ATOM     14  H   UNL     1      11.386  15.819  44.711  0.00  0.00    +0.000 HD
ENDROOT
TORSDOF 0
ENDMDL
MODEL 16
REMARK VINA RESULT:    -3.888      9.653      9.906
REMARK INTER + INTRA:          -3.888
REMARK INTER:                  -3.888
REMARK INTRA:                   0.000
REMARK UNBOUND:                 0.000
REMARK  Name = opt86.pdb
REMARK  2 active torsions:
REMARK  status: ('A' for Active; 'I' for Inactive)
REMARK    1  A    between atoms: N_3  and  C_6
REMARK    2  A    between atoms: N_12  and  C_13
REMARK                            x       y       z     vdW  Elec       q    Type
REMARK                         _______ _______ _______ _____ _____    ______ ____
ROOT
ATOM      1  O   UNL     1       6.452  11.439  40.742  0.00  0.00    +0.000 OA
ATOM      2  C   UNL     1       6.464  12.276  41.623  0.00  0.00    +0.000 A 
ATOM      3  N   UNL     1       6.501  11.972  42.951  0.00  0.00    +0.000 N 
ATOM      4  N   UNL     1       6.439  13.590  41.311  0.00  0.00    +0.000 N 
ATOM      5  C   UNL     1       6.514  12.937  43.952  0.00  0.00    +0.000 A 
ATOM      6  C   UNL     1       6.529  10.573  43.409  0.00  0.00    +0.000 C 
ATOM      7  C   UNL     1       6.445  14.646  42.153  0.00  0.00    +0.000 A 
ATOM      8  N   UNL     1       6.537  13.337  44.990  0.00  0.00    +0.000 NA
ATOM      9  C   UNL     1       6.486  14.260  43.576  0.00  0.00    +0.000 A 
ATOM     10  O   UNL     1       6.420  15.782  41.722  0.00  0.00    +0.000 OA
ATOM     11  C   UNL     1       6.549  14.014  45.873  0.00  0.00    +0.000 A 
ATOM     12  N   UNL     1       6.505  14.862  44.799  0.00  0.00    +0.000 N 
ATOM     13  C   UNL     1       6.475  16.318  44.976  0.00  0.00    +0.000 C 
ATOM     14  H   UNL     1       6.412  13.810  40.328  0.00  0.00    +0.000 HD
ENDROOT
TORSDOF 0
ENDMDL
MODEL 17
REMARK VINA RESULT:    -3.879      3.034      4.080
REMARK INTER + INTRA:          -3.879
REMARK INTER:                  -3.879
REMARK INTRA:                   0.000
REMARK UNBOUND:                 0.000
REMARK  Name = opt86.pdb
REMARK  2 active torsions:
REMARK  status: ('A' for Active; 'I' for Inactive)
REMARK    1  A    between atoms: N_3  and  C_6
REMARK    2  A    between atoms: N_12  and  C_13
REMARK                            x       y       z     vdW  Elec       q    Type
REMARK                         _______ _______ _______ _____ _____    ______ ____
ROOT
ATOM      1  O   UNL     1      13.477  11.183  44.515  0.00  0.00    +0.000 OA
ATOM      2  C   UNL     1      13.214  12.296  44.108  0.00  0.00    +0.000 A 
ATOM      3  N   UNL     1      12.249  12.550  43.179  0.00  0.00    +0.000 N 
ATOM      4  N   UNL     1      13.890  13.368  44.575  0.00  0.00    +0.000 N 
ATOM      5  C   UNL     1      11.955  13.829  42.719  0.00  0.00    +0.000 A 
ATOM      6  C   UNL     1      11.448  11.460  42.597  0.00  0.00    +0.000 C 
ATOM      7  C   UNL     1      13.733  14.665  44.237  0.00  0.00    +0.000 A 
ATOM      8  N   UNL     1      11.431  14.609  42.122  0.00  0.00    +0.000 NA
ATOM      9  C   UNL     1      12.677  14.883  43.229  0.00  0.00    +0.000 A 
ATOM     10  O   UNL     1      14.421  15.527  44.746  0.00  0.00    +0.000 OA
ATOM     11  C   UNL     1      11.110  15.578  41.680  0.00  0.00    +0.000 A 
ATOM     12  N   UNL     1      12.112  15.919  42.548  0.00  0.00    +0.000 N 
ATOM     13  C   UNL     1      12.536  17.313  42.713  0.00  0.00    +0.000 C 
ATOM     14  H   UNL     1      14.602  13.175  45.262  0.00  0.00    +0.000 HD
ENDROOT
TORSDOF 0
ENDMDL
MODEL 18
REMARK VINA RESULT:    -3.849      2.667      3.772
REMARK INTER + INTRA:          -3.849
REMARK INTER:                  -3.849
REMARK INTRA:                   0.000
REMARK UNBOUND:                 0.000
REMARK  Name = opt86.pdb
REMARK  2 active torsions:
REMARK  status: ('A' for Active; 'I' for Inactive)
REMARK    1  A    between atoms: N_3  and  C_6
REMARK    2  A    between atoms: N_12  and  C_13
REMARK                            x       y       z     vdW  Elec       q    Type
REMARK                         _______ _______ _______ _____ _____    ______ ____
ROOT
ATOM      1  O   UNL     1      10.012  14.346  42.084  0.00  0.00    +0.000 OA
ATOM      2  C   UNL     1      11.069  14.053  42.605  0.00  0.00    +0.000 A 
ATOM      3  N   UNL     1      11.466  12.769  42.834  0.00  0.00    +0.000 N 
ATOM      4  N   UNL     1      11.927  15.022  42.992  0.00  0.00    +0.000 N 
ATOM      5  C   UNL     1      12.680  12.444  43.431  0.00  0.00    +0.000 A 
ATOM      6  C   UNL     1      10.613  11.631  42.454  0.00  0.00    +0.000 C 
ATOM      7  C   UNL     1      13.133  14.880  43.583  0.00  0.00    +0.000 A 
ATOM      8  N   UNL     1      13.479  11.783  43.835  0.00  0.00    +0.000 NA
ATOM      9  C   UNL     1      13.513  13.472  43.807  0.00  0.00    +0.000 A 
ATOM     10  O   UNL     1      13.797  15.854  43.877  0.00  0.00    +0.000 OA
ATOM     11  C   UNL     1      14.415  11.403  44.302  0.00  0.00    +0.000 A 
ATOM     12  N   UNL     1      14.550  12.765  44.335  0.00  0.00    +0.000 N 
ATOM     13  C   UNL     1      15.741  13.399  44.911  0.00  0.00    +0.000 C 
ATOM     14  H   UNL     1      11.629  15.969  42.821  0.00  0.00    +0.000 HD
ENDROOT
TORSDOF 0
ENDMDL
MODEL 19
REMARK VINA RESULT:    -3.793      2.730      4.806
REMARK INTER + INTRA:          -3.793
REMARK INTER:                  -3.793
REMARK INTRA:                   0.000
REMARK UNBOUND:                 0.000
REMARK  Name = opt86.pdb
REMARK  2 active torsions:
REMARK  status: ('A' for Active; 'I' for Inactive)
REMARK    1  A    between atoms: N_3  and  C_6
REMARK    2  A    between atoms: N_12  and  C_13
REMARK                            x       y       z     vdW  Elec       q    Type
REMARK                         _______ _______ _______ _____ _____    ______ ____
ROOT
ATOM      1  O   UNL     1      15.171  15.831  44.547  0.00  0.00    +0.000 OA
ATOM      2  C   UNL     1      14.326  15.063  44.135  0.00  0.00    +0.000 A 
ATOM      3  N   UNL     1      13.372  15.410  43.225  0.00  0.00    +0.000 N 
ATOM      4  N   UNL     1      14.293  13.787  44.577  0.00  0.00    +0.000 N 
ATOM      5  C   UNL     1      12.408  14.523  42.758  0.00  0.00    +0.000 A 
ATOM      6  C   UNL     1      13.309  16.774  42.673  0.00  0.00    +0.000 C 
ATOM      7  C   UNL     1      13.431  12.807  44.232  0.00  0.00    +0.000 A 
ATOM      8  N   UNL     1      11.532  14.181  42.163  0.00  0.00    +0.000 NA
ATOM      9  C   UNL     1      12.421  13.237  43.245  0.00  0.00    +0.000 A 
ATOM     10  O   UNL     1      13.526  11.698  44.718  0.00  0.00    +0.000 OA
ATOM     11  C   UNL     1      10.716  13.567  41.721  0.00  0.00    +0.000 A 
ATOM     12  N   UNL     1      11.360  12.710  42.572  0.00  0.00    +0.000 N 
ATOM     13  C   UNL     1      10.915  11.322  42.739  0.00  0.00    +0.000 C 
ATOM     14  H   UNL     1      15.000  13.535  45.250  0.00  0.00    +0.000 HD
ENDROOT
TORSDOF 0
ENDMDL
MODEL 20
REMARK VINA RESULT:    -3.663      2.847      4.723
REMARK INTER + INTRA:          -3.663
REMARK INTER:                  -3.663
REMARK INTRA:                   0.000
REMARK UNBOUND:                 0.000
REMARK  Name = opt86.pdb
REMARK  2 active torsions:
REMARK  status: ('A' for Active; 'I' for Inactive)
REMARK    1  A    between atoms: N_3  and  C_6
REMARK    2  A    between atoms: N_12  and  C_13
REMARK                            x       y       z     vdW  Elec       q    Type
REMARK                         _______ _______ _______ _____ _____    ______ ____
ROOT
ATOM      1  O   UNL     1      16.577  17.235  44.586  0.00  0.00    +0.000 OA
ATOM      2  C   UNL     1      15.626  16.479  44.565  0.00  0.00    +0.000 A 
ATOM      3  N   UNL     1      15.743  15.121  44.538  0.00  0.00    +0.000 N 
ATOM      4  N   UNL     1      14.368  16.971  44.569  0.00  0.00    +0.000 N 
ATOM      5  C   UNL     1      14.648  14.265  44.516  0.00  0.00    +0.000 A 
ATOM      6  C   UNL     1      17.064  14.473  44.531  0.00  0.00    +0.000 C 
ATOM      7  C   UNL     1      13.205  16.285  44.547  0.00  0.00    +0.000 A 
ATOM      8  N   UNL     1      14.107  13.292  44.494  0.00  0.00    +0.000 NA
ATOM      9  C   UNL     1      13.390  14.821  44.519  0.00  0.00    +0.000 A 
ATOM     10  O   UNL     1      12.140  16.869  44.553  0.00  0.00    +0.000 OA
ATOM     11  C   UNL     1      13.314  12.512  44.473  0.00  0.00    +0.000 A 
ATOM     12  N   UNL     1      12.624  13.695  44.488  0.00  0.00    +0.000 N 
ATOM     13  C   UNL     1      11.158  13.723  44.464  0.00  0.00    +0.000 C 
ATOM     14  H   UNL     1      14.287  17.975  44.589  0.00  0.00    +0.000 HD
ENDROOT
TORSDOF 0
ENDMDL
