MODEL 1
REMARK VINA RESULT:    -6.422      0.000      0.000
REMARK INTER + INTRA:          -8.049
REMARK INTER:                  -7.736
REMARK INTRA:                  -0.313
REMARK UNBOUND:                -0.313
REMARK  Name = opt87.pdb
REMARK  6 active torsions:
REMARK  status: ('A' for Active; 'I' for Inactive)
REMARK    1  A    between atoms: C_3  and  O_5
REMARK    2  A    between atoms: C_6  and  C_10
REMARK    3  A    between atoms: C_8  and  O_12
REMARK    4  A    between atoms: C_16  and  O_19
REMARK    5  A    between atoms: C_17  and  O_20
REMARK    6  A    between atoms: C_21  and  O_22
REMARK                            x       y       z     vdW  Elec       q    Type
REMARK                         _______ _______ _______ _____ _____    ______ ____
ROOT
ATOM      1  O   UNL     1      11.811  10.922  43.376  0.00  0.00    +0.000 OA
ATOM      2  C   UNL     1      12.215  12.054  43.578  0.00  0.00    +0.000 A 
ATOM      3  C   UNL     1      13.652  12.378  43.790  0.00  0.00    +0.000 A 
ATOM      4  C   UNL     1      11.339  13.239  43.630  0.00  0.00    +0.000 A 
ATOM      5  C   UNL     1      13.967  13.454  43.965  0.00  0.00    +0.000 A 
ATOM      6  C   UNL     1      11.977  14.437  43.866  0.00  0.00    +0.000 A 
ATOM      7  C   UNL     1       9.903  13.248  43.448  0.00  0.00    +0.000 A 
ATOM      8  O   UNL     1      13.364  14.408  44.020  0.00  0.00    +0.000 OA
ATOM      9  C   UNL     1      11.199  15.663  43.934  0.00  0.00    +0.000 A 
ATOM     10  C   UNL     1       9.174  14.426  43.507  0.00  0.00    +0.000 A 
ATOM     11  C   UNL     1       9.810  15.635  43.751  0.00  0.00    +0.000 A 
ENDROOT
BRANCH   5  12
ATOM     12  C   UNL     1      15.403  13.866  44.189  0.00  0.00    +0.000 A 
ATOM     13  C   UNL     1      16.314  13.926  43.117  0.00  0.00    +0.000 A 
ATOM     14  C   UNL     1      15.877  14.136  45.489  0.00  0.00    +0.000 A 
ATOM     15  C   UNL     1      17.656  14.248  43.345  0.00  0.00    +0.000 A 
ATOM     16  C   UNL     1      17.220  14.457  45.703  0.00  0.00    +0.000 A 
ATOM     17  C   UNL     1      18.109  14.510  44.633  0.00  0.00    +0.000 A 
BRANCH  15  18
ATOM     18  O   UNL     1      18.563  14.303  42.326  0.00  0.00    +0.000 OA
ATOM     19  H   UNL     1      18.195  14.800  41.585  0.00  0.00    +0.000 HD
ENDBRANCH  15  18
BRANCH  17  20
ATOM     20  O   UNL     1      19.434  14.802  44.818  0.00  0.00    +0.000 OA
ATOM     21  H   UNL     1      19.498  15.492  45.523  0.00  0.00    +0.000 HD
ENDBRANCH  17  20
ENDBRANCH   5  12
BRANCH   3  22
ATOM     22  O   UNL     1      14.416  11.255  43.721  0.00  0.00    +0.000 OA
ATOM     23  H   UNL     1      13.884  10.573  43.241  0.00  0.00    +0.000 HD
ENDBRANCH   3  22
BRANCH   7  24
ATOM     24  O   UNL     1       9.237  12.092  43.204  0.00  0.00    +0.000 OA
ATOM     25  H   UNL     1       9.765  11.611  42.543  0.00  0.00    +0.000 HD
ENDBRANCH   7  24
BRANCH  11  26
ATOM     26  O   UNL     1       9.018  16.750  43.798  0.00  0.00    +0.000 OA
ATOM     27  H   UNL     1       8.818  17.049  44.696  0.00  0.00    +0.000 HD
ENDBRANCH  11  26
TORSDOF 6
ENDMDL
MODEL 2
REMARK VINA RESULT:    -6.395      1.311      2.090
REMARK INTER + INTRA:          -8.017
REMARK INTER:                  -7.644
REMARK INTRA:                  -0.373
REMARK UNBOUND:                -0.313
REMARK  Name = opt87.pdb
REMARK  6 active torsions:
REMARK  status: ('A' for Active; 'I' for Inactive)
REMARK    1  A    between atoms: C_3  and  O_5
REMARK    2  A    between atoms: C_6  and  C_10
REMARK    3  A    between atoms: C_8  and  O_12
REMARK    4  A    between atoms: C_16  and  O_19
REMARK    5  A    between atoms: C_17  and  O_20
REMARK    6  A    between atoms: C_21  and  O_22
REMARK                            x       y       z     vdW  Elec       q    Type
REMARK                         _______ _______ _______ _____ _____    ______ ____
ROOT
ATOM      1  O   UNL     1       9.871  11.544  43.178  0.00  0.00    +0.000 OA
ATOM      2  C   UNL     1      10.503  12.569  43.363  0.00  0.00    +0.000 A 
ATOM      3  C   UNL     1      11.983  12.593  43.522  0.00  0.00    +0.000 A 
ATOM      4  C   UNL     1       9.889  13.907  43.447  0.00  0.00    +0.000 A 
ATOM      5  C   UNL     1      12.516  13.582  43.684  0.00  0.00    +0.000 A 
ATOM      6  C   UNL     1      10.765  14.949  43.658  0.00  0.00    +0.000 A 
ATOM      7  C   UNL     1       8.479  14.208  43.318  0.00  0.00    +0.000 A 
ATOM      8  O   UNL     1      12.121  14.638  43.760  0.00  0.00    +0.000 OA
ATOM      9  C   UNL     1      10.255  16.306  43.753  0.00  0.00    +0.000 A 
ATOM     10  C   UNL     1       8.007  15.510  43.403  0.00  0.00    +0.000 A 
ATOM     11  C   UNL     1       8.883  16.563  43.621  0.00  0.00    +0.000 A 
ENDROOT
BRANCH   5  12
ATOM     12  C   UNL     1      14.013  13.693  43.855  0.00  0.00    +0.000 A 
ATOM     13  C   UNL     1      14.607  13.566  45.126  0.00  0.00    +0.000 A 
ATOM     14  C   UNL     1      14.840  13.993  42.754  0.00  0.00    +0.000 A 
ATOM     15  C   UNL     1      15.987  13.733  45.282  0.00  0.00    +0.000 A 
ATOM     16  C   UNL     1      16.217  14.157  42.924  0.00  0.00    +0.000 A 
ATOM     17  C   UNL     1      16.790  14.030  44.187  0.00  0.00    +0.000 A 
BRANCH  15  18
ATOM     18  O   UNL     1      16.587  13.626  46.504  0.00  0.00    +0.000 OA
ATOM     19  H   UNL     1      17.034  14.452  46.725  0.00  0.00    +0.000 HD
ENDBRANCH  15  18
BRANCH  17  20
ATOM     20  O   UNL     1      18.133  14.206  44.385  0.00  0.00    +0.000 OA
ATOM     21  H   UNL     1      18.407  13.629  45.140  0.00  0.00    +0.000 HD
ENDBRANCH  17  20
ENDBRANCH   5  12
BRANCH   3  22
ATOM     22  O   UNL     1      12.500  11.339  43.426  0.00  0.00    +0.000 OA
ATOM     23  H   UNL     1      12.777  11.070  44.337  0.00  0.00    +0.000 HD
ENDBRANCH   3  22
BRANCH   7  24
ATOM     24  O   UNL     1       7.584  13.213  43.100  0.00  0.00    +0.000 OA
ATOM     25  H   UNL     1       7.198  13.384  42.223  0.00  0.00    +0.000 HD
ENDBRANCH   7  24
BRANCH  11  26
ATOM     26  O   UNL     1       8.336  17.815  43.697  0.00  0.00    +0.000 OA
ATOM     27  H   UNL     1       8.990  18.527  43.687  0.00  0.00    +0.000 HD
ENDBRANCH  11  26
TORSDOF 6
ENDMDL
MODEL 3
REMARK VINA RESULT:    -6.309      2.135      2.687
REMARK INTER + INTRA:          -7.913
REMARK INTER:                  -7.560
REMARK INTRA:                  -0.353
REMARK UNBOUND:                -0.313
REMARK  Name = opt87.pdb
REMARK  6 active torsions:
REMARK  status: ('A' for Active; 'I' for Inactive)
REMARK    1  A    between atoms: C_3  and  O_5
REMARK    2  A    between atoms: C_6  and  C_10
REMARK    3  A    between atoms: C_8  and  O_12
REMARK    4  A    between atoms: C_16  and  O_19
REMARK    5  A    between atoms: C_17  and  O_20
REMARK    6  A    between atoms: C_21  and  O_22
REMARK                            x       y       z     vdW  Elec       q    Type
REMARK                         _______ _______ _______ _____ _____    ______ ____
ROOT
ATOM      1  O   UNL     1      10.530  11.800  41.214  0.00  0.00    +0.000 OA
ATOM      2  C   UNL     1      10.703  12.469  42.217  0.00  0.00    +0.000 A 
ATOM      3  C   UNL     1      12.038  12.977  42.635  0.00  0.00    +0.000 A 
ATOM      4  C   UNL     1       9.618  12.864  43.135  0.00  0.00    +0.000 A 
ATOM      5  C   UNL     1      12.133  13.603  43.576  0.00  0.00    +0.000 A 
ATOM      6  C   UNL     1      10.006  13.624  44.217  0.00  0.00    +0.000 A 
ATOM      7  C   UNL     1       8.216  12.536  42.992  0.00  0.00    +0.000 A 
ATOM      8  O   UNL     1      11.359  13.944  44.326  0.00  0.00    +0.000 OA
ATOM      9  C   UNL     1       9.009  14.063  45.178  0.00  0.00    +0.000 A 
ATOM     10  C   UNL     1       7.274  12.969  43.912  0.00  0.00    +0.000 A 
ATOM     11  C   UNL     1       7.658  13.730  45.007  0.00  0.00    +0.000 A 
ENDROOT
BRANCH   5  12
ATOM     12  C   UNL     1      13.450  14.155  44.070  0.00  0.00    +0.000 A 
ATOM     13  C   UNL     1      14.340  13.350  44.808  0.00  0.00    +0.000 A 
ATOM     14  C   UNL     1      13.785  15.508  43.858  0.00  0.00    +0.000 A 
ATOM     15  C   UNL     1      15.528  13.889  45.314  0.00  0.00    +0.000 A 
ATOM     16  C   UNL     1      14.974  16.033  44.369  0.00  0.00    +0.000 A 
ATOM     17  C   UNL     1      15.844  15.226  45.098  0.00  0.00    +0.000 A 
BRANCH  15  18
ATOM     18  O   UNL     1      16.404  13.135  46.041  0.00  0.00    +0.000 OA
ATOM     19  H   UNL     1      16.971  12.628  45.448  0.00  0.00    +0.000 HD
ENDBRANCH  15  18
BRANCH  17  20
ATOM     20  O   UNL     1      17.006  15.720  45.627  0.00  0.00    +0.000 OA
ATOM     21  H   UNL     1      17.491  16.193  44.906  0.00  0.00    +0.000 HD
ENDBRANCH  17  20
ENDBRANCH   5  12
BRANCH   3  22
ATOM     22  O   UNL     1      12.998  12.595  41.751  0.00  0.00    +0.000 OA
ATOM     23  H   UNL     1      13.342  13.419  41.324  0.00  0.00    +0.000 HD
ENDBRANCH   3  22
BRANCH   7  24
ATOM     24  O   UNL     1       7.791  11.798  41.936  0.00  0.00    +0.000 OA
ATOM     25  H   UNL     1       7.194  12.374  41.426  0.00  0.00    +0.000 HD
ENDBRANCH   7  24
BRANCH  11  26
ATOM     26  O   UNL     1       6.668  14.113  45.870  0.00  0.00    +0.000 OA
ATOM     27  H   UNL     1       5.913  13.510  45.890  0.00  0.00    +0.000 HD
ENDBRANCH  11  26
TORSDOF 6
ENDMDL
MODEL 4
REMARK VINA RESULT:    -6.252      2.016      7.142
REMARK INTER + INTRA:          -7.844
REMARK INTER:                  -7.542
REMARK INTRA:                  -0.302
REMARK UNBOUND:                -0.313
REMARK  Name = opt87.pdb
REMARK  6 active torsions:
REMARK  status: ('A' for Active; 'I' for Inactive)
REMARK    1  A    between atoms: C_3  and  O_5
REMARK    2  A    between atoms: C_6  and  C_10
REMARK    3  A    between atoms: C_8  and  O_12
REMARK    4  A    between atoms: C_16  and  O_19
REMARK    5  A    between atoms: C_17  and  O_20
REMARK    6  A    between atoms: C_21  and  O_22
REMARK                            x       y       z     vdW  Elec       q    Type
REMARK                         _______ _______ _______ _____ _____    ______ ____
ROOT
ATOM      1  O   UNL     1      13.475  16.416  41.529  0.00  0.00    +0.000 OA
ATOM      2  C   UNL     1      13.151  15.641  42.412  0.00  0.00    +0.000 A 
ATOM      3  C   UNL     1      11.759  15.143  42.586  0.00  0.00    +0.000 A 
ATOM      4  C   UNL     1      14.091  15.098  43.410  0.00  0.00    +0.000 A 
ATOM      5  C   UNL     1      11.522  14.416  43.423  0.00  0.00    +0.000 A 
ATOM      6  C   UNL     1      13.542  14.232  44.331  0.00  0.00    +0.000 A 
ATOM      7  C   UNL     1      15.508  15.382  43.493  0.00  0.00    +0.000 A 
ATOM      8  O   UNL     1      12.178  13.958  44.221  0.00  0.00    +0.000 OA
ATOM      9  C   UNL     1      14.388  13.643  45.355  0.00  0.00    +0.000 A 
ATOM     10  C   UNL     1      16.305  14.806  44.470  0.00  0.00    +0.000 A 
ATOM     11  C   UNL     1      15.758  13.939  45.404  0.00  0.00    +0.000 A 
ENDROOT
BRANCH   5  12
ATOM     12  C   UNL     1      10.137  13.864  43.669  0.00  0.00    +0.000 A 
ATOM     13  C   UNL     1       9.804  12.550  43.285  0.00  0.00    +0.000 A 
ATOM     14  C   UNL     1       9.130  14.677  44.227  0.00  0.00    +0.000 A 
ATOM     15  C   UNL     1       8.501  12.071  43.459  0.00  0.00    +0.000 A 
ATOM     16  C   UNL     1       7.833  14.185  44.395  0.00  0.00    +0.000 A 
ATOM     17  C   UNL     1       7.518  12.885  44.010  0.00  0.00    +0.000 A 
BRANCH  15  18
ATOM     18  O   UNL     1       8.148  10.806  43.087  0.00  0.00    +0.000 OA
ATOM     19  H   UNL     1       7.813  10.320  43.850  0.00  0.00    +0.000 HD
ENDBRANCH  15  18
BRANCH  17  20
ATOM     20  O   UNL     1       6.251  12.386  44.145  0.00  0.00    +0.000 OA
ATOM     21  H   UNL     1       6.124  11.687  43.456  0.00  0.00    +0.000 HD
ENDBRANCH  17  20
ENDBRANCH   5  12
BRANCH   3  22
ATOM     22  O   UNL     1      10.938  15.665  41.636  0.00  0.00    +0.000 OA
ATOM     23  H   UNL     1      11.514  16.119  40.973  0.00  0.00    +0.000 HD
ENDBRANCH   3  22
BRANCH   7  24
ATOM     24  O   UNL     1      16.090  16.220  42.600  0.00  0.00    +0.000 OA
ATOM     25  H   UNL     1      15.392  16.833  42.309  0.00  0.00    +0.000 HD
ENDBRANCH   7  24
BRANCH  11  26
ATOM     26  O   UNL     1      16.612  13.417  46.337  0.00  0.00    +0.000 OA
ATOM     27  H   UNL     1      16.634  12.450  46.348  0.00  0.00    +0.000 HD
ENDBRANCH  11  26
TORSDOF 6
ENDMDL
MODEL 5
REMARK VINA RESULT:    -6.225      1.978      7.017
REMARK INTER + INTRA:          -7.811
REMARK INTER:                  -7.461
REMARK INTRA:                  -0.350
REMARK UNBOUND:                -0.313
REMARK  Name = opt87.pdb
REMARK  6 active torsions:
REMARK  status: ('A' for Active; 'I' for Inactive)
REMARK    1  A    between atoms: C_3  and  O_5
REMARK    2  A    between atoms: C_6  and  C_10
REMARK    3  A    between atoms: C_8  and  O_12
REMARK    4  A    between atoms: C_16  and  O_19
REMARK    5  A    between atoms: C_17  and  O_20
REMARK    6  A    between atoms: C_21  and  O_22
REMARK                            x       y       z     vdW  Elec       q    Type
REMARK                         _______ _______ _______ _____ _____    ______ ____
ROOT
ATOM      1  O   UNL     1      12.249  10.233  43.512  0.00  0.00    +0.000 OA
ATOM      2  C   UNL     1      12.121  11.445  43.524  0.00  0.00    +0.000 A 
ATOM      3  C   UNL     1      10.856  12.132  43.143  0.00  0.00    +0.000 A 
ATOM      4  C   UNL     1      13.191  12.378  43.922  0.00  0.00    +0.000 A 
ATOM      5  C   UNL     1      10.796  13.264  43.184  0.00  0.00    +0.000 A 
ATOM      6  C   UNL     1      12.858  13.715  43.875  0.00  0.00    +0.000 A 
ATOM      7  C   UNL     1      14.523  12.015  44.355  0.00  0.00    +0.000 A 
ATOM      8  O   UNL     1      11.563  14.042  43.473  0.00  0.00    +0.000 OA
ATOM      9  C   UNL     1      13.846  14.713  44.250  0.00  0.00    +0.000 A 
ATOM     10  C   UNL     1      15.453  12.978  44.718  0.00  0.00    +0.000 A 
ATOM     11  C   UNL     1      15.127  14.326  44.668  0.00  0.00    +0.000 A 
ENDROOT
BRANCH   5  12
ATOM     12  C   UNL     1       9.552  14.037  42.813  0.00  0.00    +0.000 A 
ATOM     13  C   UNL     1       8.511  14.223  43.745  0.00  0.00    +0.000 A 
ATOM     14  C   UNL     1       9.378  14.531  41.504  0.00  0.00    +0.000 A 
ATOM     15  C   UNL     1       7.337  14.886  43.371  0.00  0.00    +0.000 A 
ATOM     16  C   UNL     1       8.200  15.192  41.146  0.00  0.00    +0.000 A 
ATOM     17  C   UNL     1       7.180  15.367  42.076  0.00  0.00    +0.000 A 
BRANCH  15  18
ATOM     18  O   UNL     1       6.309  15.071  44.251  0.00  0.00    +0.000 OA
ATOM     19  H   UNL     1       5.472  14.837  43.832  0.00  0.00    +0.000 HD
ENDBRANCH  15  18
BRANCH  17  20
ATOM     20  O   UNL     1       6.008  15.992  41.746  0.00  0.00    +0.000 OA
ATOM     21  H   UNL     1       5.976  16.854  42.230  0.00  0.00    +0.000 HD
ENDBRANCH  17  20
ENDBRANCH   5  12
BRANCH   3  22
ATOM     22  O   UNL     1       9.901  11.228  42.797  0.00  0.00    +0.000 OA
ATOM     23  H   UNL     1       9.756  11.319  41.823  0.00  0.00    +0.000 HD
ENDBRANCH   3  22
BRANCH   7  24
ATOM     24  O   UNL     1      14.888  10.711  44.425  0.00  0.00    +0.000 OA
ATOM     25  H   UNL     1      15.759  10.697  44.858  0.00  0.00    +0.000 HD
ENDBRANCH   7  24
BRANCH  11  26
ATOM     26  O   UNL     1      16.103  15.211  45.038  0.00  0.00    +0.000 OA
ATOM     27  H   UNL     1      15.781  15.937  45.588  0.00  0.00    +0.000 HD
ENDBRANCH  11  26
TORSDOF 6
ENDMDL
MODEL 6
REMARK VINA RESULT:    -6.125      0.976      1.701
REMARK INTER + INTRA:          -7.692
REMARK INTER:                  -7.316
REMARK INTRA:                  -0.376
REMARK UNBOUND:                -0.313
REMARK  Name = opt87.pdb
REMARK  6 active torsions:
REMARK  status: ('A' for Active; 'I' for Inactive)
REMARK    1  A    between atoms: C_3  and  O_5
REMARK    2  A    between atoms: C_6  and  C_10
REMARK    3  A    between atoms: C_8  and  O_12
REMARK    4  A    between atoms: C_16  and  O_19
REMARK    5  A    between atoms: C_17  and  O_20
REMARK    6  A    between atoms: C_21  and  O_22
REMARK                            x       y       z     vdW  Elec       q    Type
REMARK                         _______ _______ _______ _____ _____    ______ ____
ROOT
ATOM      1  O   UNL     1      12.051  11.352  43.811  0.00  0.00    +0.000 OA
ATOM      2  C   UNL     1      12.565  12.445  43.652  0.00  0.00    +0.000 A 
ATOM      3  C   UNL     1      14.024  12.631  43.424  0.00  0.00    +0.000 A 
ATOM      4  C   UNL     1      11.812  13.713  43.659  0.00  0.00    +0.000 A 
ATOM      5  C   UNL     1      14.441  13.675  43.274  0.00  0.00    +0.000 A 
ATOM      6  C   UNL     1      12.565  14.850  43.460  0.00  0.00    +0.000 A 
ATOM      7  C   UNL     1      10.383  13.857  43.842  0.00  0.00    +0.000 A 
ATOM      8  O   UNL     1      13.937  14.687  43.266  0.00  0.00    +0.000 OA
ATOM      9  C   UNL     1      11.912  16.148  43.448  0.00  0.00    +0.000 A 
ATOM     10  C   UNL     1       9.773  15.102  43.820  0.00  0.00    +0.000 A 
ATOM     11  C   UNL     1      10.526  16.251  43.626  0.00  0.00    +0.000 A 
ENDROOT
BRANCH   5  12
ATOM     12  C   UNL     1      15.908  13.951  43.038  0.00  0.00    +0.000 A 
ATOM     13  C   UNL     1      16.775  14.222  44.115  0.00  0.00    +0.000 A 
ATOM     14  C   UNL     1      16.425  14.008  41.728  0.00  0.00    +0.000 A 
ATOM     15  C   UNL     1      18.118  14.537  43.880  0.00  0.00    +0.000 A 
ATOM     16  C   UNL     1      17.769  14.324  41.509  0.00  0.00    +0.000 A 
ATOM     17  C   UNL     1      18.613  14.591  42.583  0.00  0.00    +0.000 A 
BRANCH  15  18
ATOM     18  O   UNL     1      18.977  14.814  44.905  0.00  0.00    +0.000 OA
ATOM     19  H   UNL     1      18.743  14.291  45.681  0.00  0.00    +0.000 HD
ENDBRANCH  15  18
BRANCH  17  20
ATOM     20  O   UNL     1      19.928  14.923  42.394  0.00  0.00    +0.000 OA
ATOM     21  H   UNL     1      19.987  15.483  41.581  0.00  0.00    +0.000 HD
ENDBRANCH  17  20
ENDBRANCH   5  12
BRANCH   3  22
ATOM     22  O   UNL     1      14.668  11.434  43.416  0.00  0.00    +0.000 OA
ATOM     23  H   UNL     1      15.250  11.414  44.216  0.00  0.00    +0.000 HD
ENDBRANCH   3  22
BRANCH   7  24
ATOM     24  O   UNL     1       9.605  12.762  44.031  0.00  0.00    +0.000 OA
ATOM     25  H   UNL     1       9.747  12.485  44.953  0.00  0.00    +0.000 HD
ENDBRANCH   7  24
BRANCH  11  26
ATOM     26  O   UNL     1       9.848  17.439  43.623  0.00  0.00    +0.000 OA
ATOM     27  H   UNL     1       9.691  17.801  44.505  0.00  0.00    +0.000 HD
ENDBRANCH  11  26
TORSDOF 6
ENDMDL
MODEL 7
REMARK VINA RESULT:    -6.090      2.024      6.793
REMARK INTER + INTRA:          -7.649
REMARK INTER:                  -7.490
REMARK INTRA:                  -0.159
REMARK UNBOUND:                -0.313
REMARK  Name = opt87.pdb
REMARK  6 active torsions:
REMARK  status: ('A' for Active; 'I' for Inactive)
REMARK    1  A    between atoms: C_3  and  O_5
REMARK    2  A    between atoms: C_6  and  C_10
REMARK    3  A    between atoms: C_8  and  O_12
REMARK    4  A    between atoms: C_16  and  O_19
REMARK    5  A    between atoms: C_17  and  O_20
REMARK    6  A    between atoms: C_21  and  O_22
REMARK                            x       y       z     vdW  Elec       q    Type
REMARK                         _______ _______ _______ _____ _____    ______ ____
ROOT
ATOM      1  O   UNL     1      14.210  11.602  43.736  0.00  0.00    +0.000 OA
ATOM      2  C   UNL     1      13.412  12.517  43.842  0.00  0.00    +0.000 A 
ATOM      3  C   UNL     1      11.946  12.342  43.655  0.00  0.00    +0.000 A 
ATOM      4  C   UNL     1      13.794  13.902  44.172  0.00  0.00    +0.000 A 
ATOM      5  C   UNL     1      11.253  13.232  43.776  0.00  0.00    +0.000 A 
ATOM      6  C   UNL     1      12.752  14.801  44.252  0.00  0.00    +0.000 A 
ATOM      7  C   UNL     1      15.137  14.382  44.424  0.00  0.00    +0.000 A 
ATOM      8  O   UNL     1      11.465  14.314  44.024  0.00  0.00    +0.000 OA
ATOM      9  C   UNL     1      13.027  16.191  44.573  0.00  0.00    +0.000 A 
ATOM     10  C   UNL     1      15.383  15.709  44.738  0.00  0.00    +0.000 A 
ATOM     11  C   UNL     1      14.340  16.620  44.814  0.00  0.00    +0.000 A 
ENDROOT
BRANCH   5  12
ATOM     12  C   UNL     1       9.755  13.139  43.603  0.00  0.00    +0.000 A 
ATOM     13  C   UNL     1       9.194  12.683  42.394  0.00  0.00    +0.000 A 
ATOM     14  C   UNL     1       8.887  13.571  44.626  0.00  0.00    +0.000 A 
ATOM     15  C   UNL     1       7.805  12.662  42.222  0.00  0.00    +0.000 A 
ATOM     16  C   UNL     1       7.502  13.543  44.441  0.00  0.00    +0.000 A 
ATOM     17  C   UNL     1       6.962  13.092  43.240  0.00  0.00    +0.000 A 
BRANCH  15  18
ATOM     18  O   UNL     1       7.235  12.234  41.057  0.00  0.00    +0.000 OA
ATOM     19  H   UNL     1       6.752  11.413  41.209  0.00  0.00    +0.000 HD
ENDBRANCH  15  18
BRANCH  17  20
ATOM     20  O   UNL     1       5.610  13.074  43.025  0.00  0.00    +0.000 OA
ATOM     21  H   UNL     1       5.444  12.596  42.174  0.00  0.00    +0.000 HD
ENDBRANCH  17  20
ENDBRANCH   5  12
BRANCH   3  22
ATOM     22  O   UNL     1      11.647  11.048  43.364  0.00  0.00    +0.000 OA
ATOM     23  H   UNL     1      10.661  10.980  43.324  0.00  0.00    +0.000 HD
ENDBRANCH   3  22
BRANCH   7  24
ATOM     24  O   UNL     1      16.189  13.528  44.365  0.00  0.00    +0.000 OA
ATOM     25  H   UNL     1      15.831  12.644  44.557  0.00  0.00    +0.000 HD
ENDBRANCH   7  24
BRANCH  11  26
ATOM     26  O   UNL     1      14.669  17.912  45.125  0.00  0.00    +0.000 OA
ATOM     27  H   UNL     1      14.467  18.545  44.423  0.00  0.00    +0.000 HD
ENDBRANCH  11  26
TORSDOF 6
ENDMDL
MODEL 8
REMARK VINA RESULT:    -6.087      1.970      6.713
REMARK INTER + INTRA:          -7.646
REMARK INTER:                  -7.301
REMARK INTRA:                  -0.344
REMARK UNBOUND:                -0.313
REMARK  Name = opt87.pdb
REMARK  6 active torsions:
REMARK  status: ('A' for Active; 'I' for Inactive)
REMARK    1  A    between atoms: C_3  and  O_5
REMARK    2  A    between atoms: C_6  and  C_10
REMARK    3  A    between atoms: C_8  and  O_12
REMARK    4  A    between atoms: C_16  and  O_19
REMARK    5  A    between atoms: C_17  and  O_20
REMARK    6  A    between atoms: C_21  and  O_22
REMARK                            x       y       z     vdW  Elec       q    Type
REMARK                         _______ _______ _______ _____ _____    ______ ____
ROOT
ATOM      1  O   UNL     1      14.945  11.689  44.405  0.00  0.00    +0.000 OA
ATOM      2  C   UNL     1      14.233  12.673  44.310  0.00  0.00    +0.000 A 
ATOM      3  C   UNL     1      12.799  12.603  43.916  0.00  0.00    +0.000 A 
ATOM      4  C   UNL     1      14.695  14.047  44.579  0.00  0.00    +0.000 A 
ATOM      5  C   UNL     1      12.185  13.555  43.854  0.00  0.00    +0.000 A 
ATOM      6  C   UNL     1      13.744  15.033  44.422  0.00  0.00    +0.000 A 
ATOM      7  C   UNL     1      16.026  14.435  44.993  0.00  0.00    +0.000 A 
ATOM      8  O   UNL     1      12.463  14.635  44.041  0.00  0.00    +0.000 OA
ATOM      9  C   UNL     1      14.103  16.419  44.666  0.00  0.00    +0.000 A 
ATOM     10  C   UNL     1      16.352  15.762  45.231  0.00  0.00    +0.000 A 
ATOM     11  C   UNL     1      15.402  16.759  45.069  0.00  0.00    +0.000 A 
ENDROOT
BRANCH   5  12
ATOM     12  C   UNL     1      10.727  13.572  43.461  0.00  0.00    +0.000 A 
ATOM     13  C   UNL     1       9.714  13.581  44.440  0.00  0.00    +0.000 A 
ATOM     14  C   UNL     1      10.349  13.510  42.104  0.00  0.00    +0.000 A 
ATOM     15  C   UNL     1       8.367  13.533  44.066  0.00  0.00    +0.000 A 
ATOM     16  C   UNL     1       9.000  13.462  41.745  0.00  0.00    +0.000 A 
ATOM     17  C   UNL     1       8.010  13.471  42.724  0.00  0.00    +0.000 A 
BRANCH  15  18
ATOM     18  O   UNL     1       7.366  13.531  44.994  0.00  0.00    +0.000 OA
ATOM     19  H   UNL     1       7.087  14.436  45.179  0.00  0.00    +0.000 HD
ENDBRANCH  15  18
BRANCH  17  20
ATOM     20  O   UNL     1       6.682  13.404  42.400  0.00  0.00    +0.000 OA
ATOM     21  H   UNL     1       6.454  12.455  42.242  0.00  0.00    +0.000 HD
ENDBRANCH  17  20
ENDBRANCH   5  12
BRANCH   3  22
ATOM     22  O   UNL     1      12.422  11.316  43.690  0.00  0.00    +0.000 OA
ATOM     23  H   UNL     1      12.927  10.752  44.326  0.00  0.00    +0.000 HD
ENDBRANCH   3  22
BRANCH   7  24
ATOM     24  O   UNL     1      16.989  13.495  45.169  0.00  0.00    +0.000 OA
ATOM     25  H   UNL     1      16.523  12.667  45.377  0.00  0.00    +0.000 HD
ENDBRANCH   7  24
BRANCH  11  26
ATOM     26  O   UNL     1      15.806  18.043  45.319  0.00  0.00    +0.000 OA
ATOM     27  H   UNL     1      15.214  18.715  44.956  0.00  0.00    +0.000 HD
ENDBRANCH  11  26
TORSDOF 6
ENDMDL
MODEL 9
REMARK VINA RESULT:    -6.011      2.422      6.220
REMARK INTER + INTRA:          -7.554
REMARK INTER:                  -7.366
REMARK INTRA:                  -0.187
REMARK UNBOUND:                -0.313
REMARK  Name = opt87.pdb
REMARK  6 active torsions:
REMARK  status: ('A' for Active; 'I' for Inactive)
REMARK    1  A    between atoms: C_3  and  O_5
REMARK    2  A    between atoms: C_6  and  C_10
REMARK    3  A    between atoms: C_8  and  O_12
REMARK    4  A    between atoms: C_16  and  O_19
REMARK    5  A    between atoms: C_17  and  O_20
REMARK    6  A    between atoms: C_21  and  O_22
REMARK                            x       y       z     vdW  Elec       q    Type
REMARK                         _______ _______ _______ _____ _____    ______ ____
ROOT
ATOM      1  O   UNL     1      16.529  13.508  45.172  0.00  0.00    +0.000 OA
ATOM      2  C   UNL     1      15.511  14.122  44.907  0.00  0.00    +0.000 A 
ATOM      3  C   UNL     1      14.277  13.466  44.395  0.00  0.00    +0.000 A 
ATOM      4  C   UNL     1      15.370  15.581  45.065  0.00  0.00    +0.000 A 
ATOM      5  C   UNL     1      13.357  14.092  44.174  0.00  0.00    +0.000 A 
ATOM      6  C   UNL     1      14.141  16.099  44.716  0.00  0.00    +0.000 A 
ATOM      7  C   UNL     1      16.385  16.490  45.553  0.00  0.00    +0.000 A 
ATOM      8  O   UNL     1      13.171  15.203  44.266  0.00  0.00    +0.000 OA
ATOM      9  C   UNL     1      13.904  17.527  44.838  0.00  0.00    +0.000 A 
ATOM     10  C   UNL     1      16.142  17.850  45.672  0.00  0.00    +0.000 A 
ATOM     11  C   UNL     1      14.909  18.378  45.317  0.00  0.00    +0.000 A 
ENDROOT
BRANCH   5  12
ATOM     12  C   UNL     1      12.066  13.505  43.651  0.00  0.00    +0.000 A 
ATOM     13  C   UNL     1      12.028  12.828  42.416  0.00  0.00    +0.000 A 
ATOM     14  C   UNL     1      10.860  13.682  44.357  0.00  0.00    +0.000 A 
ATOM     15  C   UNL     1      10.817  12.343  41.912  0.00  0.00    +0.000 A 
ATOM     16  C   UNL     1       9.657  13.192  43.842  0.00  0.00    +0.000 A 
ATOM     17  C   UNL     1       9.634  12.526  42.620  0.00  0.00    +0.000 A 
BRANCH  15  18
ATOM     18  O   UNL     1      10.750  11.692  40.713  0.00  0.00    +0.000 OA
ATOM     19  H   UNL     1      10.398  10.803  40.841  0.00  0.00    +0.000 HD
ENDBRANCH  15  18
BRANCH  17  20
ATOM     20  O   UNL     1       8.467  12.055  42.082  0.00  0.00    +0.000 OA
ATOM     21  H   UNL     1       8.694  11.325  41.455  0.00  0.00    +0.000 HD
ENDBRANCH  17  20
ENDBRANCH   5  12
BRANCH   3  22
ATOM     22  O   UNL     1      14.456  12.124  44.278  0.00  0.00    +0.000 OA
ATOM     23  H   UNL     1      14.072  11.709  45.090  0.00  0.00    +0.000 HD
ENDBRANCH   3  22
BRANCH   7  24
ATOM     24  O   UNL     1      17.605  16.021  45.916  0.00  0.00    +0.000 OA
ATOM     25  H   UNL     1      17.452  15.427  46.672  0.00  0.00    +0.000 HD
ENDBRANCH   7  24
BRANCH  11  26
ATOM     26  O   UNL     1      14.753  19.730  45.461  0.00  0.00    +0.000 OA
ATOM     27  H   UNL     1      15.118  20.245  44.728  0.00  0.00    +0.000 HD
ENDBRANCH  11  26
TORSDOF 6
ENDMDL
MODEL 10
REMARK VINA RESULT:    -5.971      2.082      3.561
REMARK INTER + INTRA:          -7.505
REMARK INTER:                  -7.568
REMARK INTRA:                   0.063
REMARK UNBOUND:                -0.313
REMARK  Name = opt87.pdb
REMARK  6 active torsions:
REMARK  status: ('A' for Active; 'I' for Inactive)
REMARK    1  A    between atoms: C_3  and  O_5
REMARK    2  A    between atoms: C_6  and  C_10
REMARK    3  A    between atoms: C_8  and  O_12
REMARK    4  A    between atoms: C_16  and  O_19
REMARK    5  A    between atoms: C_17  and  O_20
REMARK    6  A    between atoms: C_21  and  O_22
REMARK                            x       y       z     vdW  Elec       q    Type
REMARK                         _______ _______ _______ _____ _____    ______ ____
ROOT
ATOM      1  O   UNL     1       7.863  11.550  42.611  0.00  0.00    +0.000 OA
ATOM      2  C   UNL     1       8.610  12.467  42.904  0.00  0.00    +0.000 A 
ATOM      3  C   UNL     1      10.092  12.335  42.918  0.00  0.00    +0.000 A 
ATOM      4  C   UNL     1       8.144  13.817  43.272  0.00  0.00    +0.000 A 
ATOM      5  C   UNL     1      10.735  13.229  43.192  0.00  0.00    +0.000 A 
ATOM      6  C   UNL     1       9.137  14.726  43.569  0.00  0.00    +0.000 A 
ATOM      7  C   UNL     1       6.767  14.258  43.335  0.00  0.00    +0.000 A 
ATOM      8  O   UNL     1      10.458  14.285  43.484  0.00  0.00    +0.000 OA
ATOM      9  C   UNL     1       8.778  16.083  43.942  0.00  0.00    +0.000 A 
ATOM     10  C   UNL     1       6.439  15.559  43.684  0.00  0.00    +0.000 A 
ATOM     11  C   UNL     1       7.434  16.477  43.990  0.00  0.00    +0.000 A 
ENDROOT
BRANCH   5  12
ATOM     12  C   UNL     1      12.245  13.178  43.232  0.00  0.00    +0.000 A 
ATOM     13  C   UNL     1      12.917  12.051  43.745  0.00  0.00    +0.000 A 
ATOM     14  C   UNL     1      13.010  14.286  42.817  0.00  0.00    +0.000 A 
ATOM     15  C   UNL     1      14.312  12.040  43.835  0.00  0.00    +0.000 A 
ATOM     16  C   UNL     1      14.404  14.261  42.913  0.00  0.00    +0.000 A 
ATOM     17  C   UNL     1      15.055  13.141  43.424  0.00  0.00    +0.000 A 
BRANCH  15  18
ATOM     18  O   UNL     1      14.989  10.965  44.338  0.00  0.00    +0.000 OA
ATOM     19  H   UNL     1      14.836  10.896  45.288  0.00  0.00    +0.000 HD
ENDBRANCH  15  18
BRANCH  17  20
ATOM     20  O   UNL     1      16.417  13.098  43.547  0.00  0.00    +0.000 OA
ATOM     21  H   UNL     1      16.800  13.762  42.922  0.00  0.00    +0.000 HD
ENDBRANCH  17  20
ENDBRANCH   5  12
BRANCH   3  22
ATOM     22  O   UNL     1      10.468  11.077  42.562  0.00  0.00    +0.000 OA
ATOM     23  H   UNL     1       9.821  10.454  42.975  0.00  0.00    +0.000 HD
ENDBRANCH   3  22
BRANCH   7  24
ATOM     24  O   UNL     1       5.760  13.399  43.040  0.00  0.00    +0.000 OA
ATOM     25  H   UNL     1       5.463  13.029  43.890  0.00  0.00    +0.000 HD
ENDBRANCH   7  24
BRANCH  11  26
ATOM     26  O   UNL     1       7.026  17.739  44.329  0.00  0.00    +0.000 OA
ATOM     27  H   UNL     1       7.752  18.338  44.547  0.00  0.00    +0.000 HD
ENDBRANCH  11  26
TORSDOF 6
ENDMDL
MODEL 11
REMARK VINA RESULT:    -5.962      2.315      4.746
REMARK INTER + INTRA:          -7.495
REMARK INTER:                  -7.168
REMARK INTRA:                  -0.327
REMARK UNBOUND:                -0.313
REMARK  Name = opt87.pdb
REMARK  6 active torsions:
REMARK  status: ('A' for Active; 'I' for Inactive)
REMARK    1  A    between atoms: C_3  and  O_5
REMARK    2  A    between atoms: C_6  and  C_10
REMARK    3  A    between atoms: C_8  and  O_12
REMARK    4  A    between atoms: C_16  and  O_19
REMARK    5  A    between atoms: C_17  and  O_20
REMARK    6  A    between atoms: C_21  and  O_22
REMARK                            x       y       z     vdW  Elec       q    Type
REMARK                         _______ _______ _______ _____ _____    ______ ____
ROOT
ATOM      1  O   UNL     1       7.925  16.008  43.622  0.00  0.00    +0.000 OA
ATOM      2  C   UNL     1       8.474  14.921  43.573  0.00  0.00    +0.000 A 
ATOM      3  C   UNL     1       9.954  14.759  43.566  0.00  0.00    +0.000 A 
ATOM      4  C   UNL     1       7.749  13.638  43.523  0.00  0.00    +0.000 A 
ATOM      5  C   UNL     1      10.406  13.719  43.527  0.00  0.00    +0.000 A 
ATOM      6  C   UNL     1       8.541  12.512  43.474  0.00  0.00    +0.000 A 
ATOM      7  C   UNL     1       6.312  13.469  43.531  0.00  0.00    +0.000 A 
ATOM      8  O   UNL     1       9.924  12.698  43.486  0.00  0.00    +0.000 OA
ATOM      9  C   UNL     1       7.919  11.200  43.423  0.00  0.00    +0.000 A 
ATOM     10  C   UNL     1       5.732  12.210  43.490  0.00  0.00    +0.000 A 
ATOM     11  C   UNL     1       6.523  11.072  43.435  0.00  0.00    +0.000 A 
ENDROOT
BRANCH   5  12
ATOM     12  C   UNL     1      11.896  13.468  43.515  0.00  0.00    +0.000 A 
ATOM     13  C   UNL     1      12.652  13.548  44.701  0.00  0.00    +0.000 A 
ATOM     14  C   UNL     1      12.570  13.213  42.304  0.00  0.00    +0.000 A 
ATOM     15  C   UNL     1      14.040  13.375  44.668  0.00  0.00    +0.000 A 
ATOM     16  C   UNL     1      13.957  13.043  42.286  0.00  0.00    +0.000 A 
ATOM     17  C   UNL     1      14.692  13.126  43.465  0.00  0.00    +0.000 A 
BRANCH  15  18
ATOM     18  O   UNL     1      14.799  13.458  45.800  0.00  0.00    +0.000 OA
ATOM     19  H   UNL     1      14.604  14.279  46.268  0.00  0.00    +0.000 HD
ENDBRANCH  15  18
BRANCH  17  20
ATOM     20  O   UNL     1      16.053  12.983  43.473  0.00  0.00    +0.000 OA
ATOM     21  H   UNL     1      16.453  13.876  43.328  0.00  0.00    +0.000 HD
ENDBRANCH  17  20
ENDBRANCH   5  12
BRANCH   3  22
ATOM     22  O   UNL     1      10.573  15.968  43.625  0.00  0.00    +0.000 OA
ATOM     23  H   UNL     1       9.984  16.569  44.144  0.00  0.00    +0.000 HD
ENDBRANCH   3  22
BRANCH   7  24
ATOM     24  O   UNL     1       5.496  14.551  43.588  0.00  0.00    +0.000 OA
ATOM     25  H   UNL     1       5.675  15.067  42.783  0.00  0.00    +0.000 HD
ENDBRANCH   7  24
BRANCH  11  26
ATOM     26  O   UNL     1       5.873   9.869  43.393  0.00  0.00    +0.000 OA
ATOM     27  H   UNL     1       4.914   9.948  43.297  0.00  0.00    +0.000 HD
ENDBRANCH  11  26
TORSDOF 6
ENDMDL
MODEL 12
REMARK VINA RESULT:    -5.918      1.950      6.583
REMARK INTER + INTRA:          -7.442
REMARK INTER:                  -7.096
REMARK INTRA:                  -0.347
REMARK UNBOUND:                -0.313
REMARK  Name = opt87.pdb
REMARK  6 active torsions:
REMARK  status: ('A' for Active; 'I' for Inactive)
REMARK    1  A    between atoms: C_3  and  O_5
REMARK    2  A    between atoms: C_6  and  C_10
REMARK    3  A    between atoms: C_8  and  O_12
REMARK    4  A    between atoms: C_16  and  O_19
REMARK    5  A    between atoms: C_17  and  O_20
REMARK    6  A    between atoms: C_21  and  O_22
REMARK                            x       y       z     vdW  Elec       q    Type
REMARK                         _______ _______ _______ _____ _____    ______ ____
ROOT
ATOM      1  O   UNL     1      16.452  13.516  46.163  0.00  0.00    +0.000 OA
ATOM      2  C   UNL     1      15.907  13.932  45.156  0.00  0.00    +0.000 A 
ATOM      3  C   UNL     1      14.563  13.471  44.710  0.00  0.00    +0.000 A 
ATOM      4  C   UNL     1      16.501  14.941  44.260  0.00  0.00    +0.000 A 
ATOM      5  C   UNL     1      14.105  13.902  43.767  0.00  0.00    +0.000 A 
ATOM      6  C   UNL     1      15.734  15.290  43.169  0.00  0.00    +0.000 A 
ATOM      7  C   UNL     1      17.785  15.586  44.432  0.00  0.00    +0.000 A 
ATOM      8  O   UNL     1      14.491  14.669  43.033  0.00  0.00    +0.000 OA
ATOM      9  C   UNL     1      16.233  16.278  42.229  0.00  0.00    +0.000 A 
ATOM     10  C   UNL     1      18.245  16.534  43.531  0.00  0.00    +0.000 A 
ATOM     11  C   UNL     1      17.480  16.886  42.428  0.00  0.00    +0.000 A 
ENDROOT
BRANCH   5  12
ATOM     12  C   UNL     1      12.748  13.488  43.246  0.00  0.00    +0.000 A 
ATOM     13  C   UNL     1      12.631  12.594  42.164  0.00  0.00    +0.000 A 
ATOM     14  C   UNL     1      11.572  14.041  43.791  0.00  0.00    +0.000 A 
ATOM     15  C   UNL     1      11.372  12.267  41.649  0.00  0.00    +0.000 A 
ATOM     16  C   UNL     1      10.321  13.704  43.267  0.00  0.00    +0.000 A 
ATOM     17  C   UNL     1      10.220  12.821  42.196  0.00  0.00    +0.000 A 
BRANCH  15  18
ATOM     18  O   UNL     1      11.231  11.411  40.594  0.00  0.00    +0.000 OA
ATOM     19  H   UNL     1      11.601  10.549  40.818  0.00  0.00    +0.000 HD
ENDBRANCH  15  18
BRANCH  17  20
ATOM     20  O   UNL     1       9.009  12.491  41.651  0.00  0.00    +0.000 OA
ATOM     21  H   UNL     1       8.971  12.873  40.740  0.00  0.00    +0.000 HD
ENDBRANCH  17  20
ENDBRANCH   5  12
BRANCH   3  22
ATOM     22  O   UNL     1      14.057  12.551  45.575  0.00  0.00    +0.000 OA
ATOM     23  H   UNL     1      13.961  11.705  45.072  0.00  0.00    +0.000 HD
ENDBRANCH   3  22
BRANCH   7  24
ATOM     24  O   UNL     1      18.567  15.279  45.497  0.00  0.00    +0.000 OA
ATOM     25  H   UNL     1      18.570  16.068  46.067  0.00  0.00    +0.000 HD
ENDBRANCH   7  24
BRANCH  11  26
ATOM     26  O   UNL     1      18.008  17.825  41.585  0.00  0.00    +0.000 OA
ATOM     27  H   UNL     1      17.610  18.701  41.679  0.00  0.00    +0.000 HD
ENDBRANCH  11  26
TORSDOF 6
ENDMDL
MODEL 13
REMARK VINA RESULT:    -5.916      1.999      6.834
REMARK INTER + INTRA:          -7.439
REMARK INTER:                  -7.067
REMARK INTRA:                  -0.372
REMARK UNBOUND:                -0.313
REMARK  Name = opt87.pdb
REMARK  6 active torsions:
REMARK  status: ('A' for Active; 'I' for Inactive)
REMARK    1  A    between atoms: C_3  and  O_5
REMARK    2  A    between atoms: C_6  and  C_10
REMARK    3  A    between atoms: C_8  and  O_12
REMARK    4  A    between atoms: C_16  and  O_19
REMARK    5  A    between atoms: C_17  and  O_20
REMARK    6  A    between atoms: C_21  and  O_22
REMARK                            x       y       z     vdW  Elec       q    Type
REMARK                         _______ _______ _______ _____ _____    ______ ____
ROOT
ATOM      1  O   UNL     1      12.226  10.605  43.546  0.00  0.00    +0.000 OA
ATOM      2  C   UNL     1      12.059  11.812  43.560  0.00  0.00    +0.000 A 
ATOM      3  C   UNL     1      10.777  12.459  43.167  0.00  0.00    +0.000 A 
ATOM      4  C   UNL     1      13.094  12.778  43.970  0.00  0.00    +0.000 A 
ATOM      5  C   UNL     1      10.680  13.588  43.210  0.00  0.00    +0.000 A 
ATOM      6  C   UNL     1      12.720  14.104  43.924  0.00  0.00    +0.000 A 
ATOM      7  C   UNL     1      14.433  12.457  44.417  0.00  0.00    +0.000 A 
ATOM      8  O   UNL     1      11.418  14.389  43.508  0.00  0.00    +0.000 OA
ATOM      9  C   UNL     1      13.671  15.131  44.311  0.00  0.00    +0.000 A 
ATOM     10  C   UNL     1      15.328  13.448  44.791  0.00  0.00    +0.000 A 
ATOM     11  C   UNL     1      14.959  14.784  44.741  0.00  0.00    +0.000 A 
ENDROOT
BRANCH   5  12
ATOM     12  C   UNL     1       9.415  14.322  42.828  0.00  0.00    +0.000 A 
ATOM     13  C   UNL     1       9.244  14.840  41.529  0.00  0.00    +0.000 A 
ATOM     14  C   UNL     1       8.409  14.561  43.784  0.00  0.00    +0.000 A 
ATOM     15  C   UNL     1       8.097  15.572  41.204  0.00  0.00    +0.000 A 
ATOM     16  C   UNL     1       7.268  15.294  43.446  0.00  0.00    +0.000 A 
ATOM     17  C   UNL     1       7.113  15.801  42.159  0.00  0.00    +0.000 A 
BRANCH  15  18
ATOM     18  O   UNL     1       7.911  16.094  39.956  0.00  0.00    +0.000 OA
ATOM     19  H   UNL     1       8.559  16.789  39.790  0.00  0.00    +0.000 HD
ENDBRANCH  15  18
BRANCH  17  20
ATOM     20  O   UNL     1       6.016  16.539  41.807  0.00  0.00    +0.000 OA
ATOM     21  H   UNL     1       6.201  16.963  40.933  0.00  0.00    +0.000 HD
ENDBRANCH  17  20
ENDBRANCH   5  12
BRANCH   3  22
ATOM     22  O   UNL     1       9.855  11.525  42.809  0.00  0.00    +0.000 OA
ATOM     23  H   UNL     1       9.247  11.955  42.158  0.00  0.00    +0.000 HD
ENDBRANCH   3  22
BRANCH   7  24
ATOM     24  O   UNL     1      14.839  11.165  44.487  0.00  0.00    +0.000 OA
ATOM     25  H   UNL     1      14.242  10.728  45.120  0.00  0.00    +0.000 HD
ENDBRANCH   7  24
BRANCH  11  26
ATOM     26  O   UNL     1      15.902  15.700  45.123  0.00  0.00    +0.000 OA
ATOM     27  H   UNL     1      15.555  16.404  45.686  0.00  0.00    +0.000 HD
ENDBRANCH  11  26
TORSDOF 6
ENDMDL
MODEL 14
REMARK VINA RESULT:    -5.850      2.562      4.742
REMARK INTER + INTRA:          -7.360
REMARK INTER:                  -7.355
REMARK INTRA:                  -0.005
REMARK UNBOUND:                -0.313
REMARK  Name = opt87.pdb
REMARK  6 active torsions:
REMARK  status: ('A' for Active; 'I' for Inactive)
REMARK    1  A    between atoms: C_3  and  O_5
REMARK    2  A    between atoms: C_6  and  C_10
REMARK    3  A    between atoms: C_8  and  O_12
REMARK    4  A    between atoms: C_16  and  O_19
REMARK    5  A    between atoms: C_17  and  O_20
REMARK    6  A    between atoms: C_21  and  O_22
REMARK                            x       y       z     vdW  Elec       q    Type
REMARK                         _______ _______ _______ _____ _____    ______ ____
ROOT
ATOM      1  O   UNL     1       8.522  15.493  40.582  0.00  0.00    +0.000 OA
ATOM      2  C   UNL     1       8.833  14.667  41.423  0.00  0.00    +0.000 A 
ATOM      3  C   UNL     1      10.183  14.612  42.047  0.00  0.00    +0.000 A 
ATOM      4  C   UNL     1       7.916  13.630  41.930  0.00  0.00    +0.000 A 
ATOM      5  C   UNL     1      10.409  13.824  42.831  0.00  0.00    +0.000 A 
ATOM      6  C   UNL     1       8.445  12.785  42.882  0.00  0.00    +0.000 A 
ATOM      7  C   UNL     1       6.539  13.436  41.528  0.00  0.00    +0.000 A 
ATOM      8  O   UNL     1       9.769  13.002  43.268  0.00  0.00    +0.000 OA
ATOM      9  C   UNL     1       7.619  11.731  43.444  0.00  0.00    +0.000 A 
ATOM     10  C   UNL     1       5.759  12.431  42.079  0.00  0.00    +0.000 A 
ATOM     11  C   UNL     1       6.287  11.574  43.034  0.00  0.00    +0.000 A 
ENDROOT
BRANCH   5  12
ATOM     12  C   UNL     1      11.752  13.699  43.512  0.00  0.00    +0.000 A 
ATOM     13  C   UNL     1      12.346  12.437  43.713  0.00  0.00    +0.000 A 
ATOM     14  C   UNL     1      12.408  14.838  44.019  0.00  0.00    +0.000 A 
ATOM     15  C   UNL     1      13.560  12.328  44.400  0.00  0.00    +0.000 A 
ATOM     16  C   UNL     1      13.620  14.715  44.702  0.00  0.00    +0.000 A 
ATOM     17  C   UNL     1      14.194  13.461  44.896  0.00  0.00    +0.000 A 
BRANCH  15  18
ATOM     18  O   UNL     1      14.152  11.117  44.618  0.00  0.00    +0.000 OA
ATOM     19  H   UNL     1      14.156  10.918  45.562  0.00  0.00    +0.000 HD
ENDBRANCH  15  18
BRANCH  17  20
ATOM     20  O   UNL     1      15.370  13.310  45.579  0.00  0.00    +0.000 OA
ATOM     21  H   UNL     1      16.020  13.960  45.214  0.00  0.00    +0.000 HD
ENDBRANCH  17  20
ENDBRANCH   5  12
BRANCH   3  22
ATOM     22  O   UNL     1      10.984  15.594  41.554  0.00  0.00    +0.000 OA
ATOM     23  H   UNL     1      11.884  15.454  41.940  0.00  0.00    +0.000 HD
ENDBRANCH   3  22
BRANCH   7  24
ATOM     24  O   UNL     1       5.977  14.251  40.601  0.00  0.00    +0.000 OA
ATOM     25  H   UNL     1       6.713  14.714  40.165  0.00  0.00    +0.000 HD
ENDBRANCH   7  24
BRANCH  11  26
ATOM     26  O   UNL     1       5.453  10.606  43.524  0.00  0.00    +0.000 OA
ATOM     27  H   UNL     1       5.766   9.706  43.367  0.00  0.00    +0.000 HD
ENDBRANCH  11  26
TORSDOF 6
ENDMDL
MODEL 15
REMARK VINA RESULT:    -5.800      2.057      6.923
REMARK INTER + INTRA:          -7.300
REMARK INTER:                  -7.019
REMARK INTRA:                  -0.281
REMARK UNBOUND:                -0.313
REMARK  Name = opt87.pdb
REMARK  6 active torsions:
REMARK  status: ('A' for Active; 'I' for Inactive)
REMARK    1  A    between atoms: C_3  and  O_5
REMARK    2  A    between atoms: C_6  and  C_10
REMARK    3  A    between atoms: C_8  and  O_12
REMARK    4  A    between atoms: C_16  and  O_19
REMARK    5  A    between atoms: C_17  and  O_20
REMARK    6  A    between atoms: C_21  and  O_22
REMARK                            x       y       z     vdW  Elec       q    Type
REMARK                         _______ _______ _______ _____ _____    ______ ____
ROOT
ATOM      1  O   UNL     1      14.160  11.622  43.796  0.00  0.00    +0.000 OA
ATOM      2  C   UNL     1      13.436  12.600  43.873  0.00  0.00    +0.000 A 
ATOM      3  C   UNL     1      11.970  12.547  43.622  0.00  0.00    +0.000 A 
ATOM      4  C   UNL     1      13.916  13.948  44.229  0.00  0.00    +0.000 A 
ATOM      5  C   UNL     1      11.348  13.491  43.718  0.00  0.00    +0.000 A 
ATOM      6  C   UNL     1      12.949  14.929  44.269  0.00  0.00    +0.000 A 
ATOM      7  C   UNL     1      15.281  14.314  44.542  0.00  0.00    +0.000 A 
ATOM      8  O   UNL     1      11.637  14.551  43.983  0.00  0.00    +0.000 OA
ATOM      9  C   UNL     1      13.323  16.291  44.612  0.00  0.00    +0.000 A 
ATOM     10  C   UNL     1      15.622  15.616  44.876  0.00  0.00    +0.000 A 
ATOM     11  C   UNL     1      14.655  16.610  44.912  0.00  0.00    +0.000 A 
ENDROOT
BRANCH   5  12
ATOM     12  C   UNL     1       9.856  13.523  43.479  0.00  0.00    +0.000 A 
ATOM     13  C   UNL     1       8.954  13.623  44.556  0.00  0.00    +0.000 A 
ATOM     14  C   UNL     1       9.335  13.386  42.177  0.00  0.00    +0.000 A 
ATOM     15  C   UNL     1       7.574  13.588  44.329  0.00  0.00    +0.000 A 
ATOM     16  C   UNL     1       7.955  13.354  41.964  0.00  0.00    +0.000 A 
ATOM     17  C   UNL     1       7.075  13.452  43.038  0.00  0.00    +0.000 A 
BRANCH  15  18
ATOM     18  O   UNL     1       6.677  13.673  45.355  0.00  0.00    +0.000 OA
ATOM     19  H   UNL     1       7.001  14.286  46.026  0.00  0.00    +0.000 HD
ENDBRANCH  15  18
BRANCH  17  20
ATOM     20  O   UNL     1       5.719  13.402  42.860  0.00  0.00    +0.000 OA
ATOM     21  H   UNL     1       5.350  12.752  43.508  0.00  0.00    +0.000 HD
ENDBRANCH  17  20
ENDBRANCH   5  12
BRANCH   3  22
ATOM     22  O   UNL     1      11.579  11.283  43.309  0.00  0.00    +0.000 OA
ATOM     23  H   UNL     1      10.993  10.972  44.043  0.00  0.00    +0.000 HD
ENDBRANCH   3  22
BRANCH   7  24
ATOM     24  O   UNL     1      16.261  13.377  44.524  0.00  0.00    +0.000 OA
ATOM     25  H   UNL     1      16.813  13.548  45.307  0.00  0.00    +0.000 HD
ENDBRANCH   7  24
BRANCH  11  26
ATOM     26  O   UNL     1      15.075  17.868  45.246  0.00  0.00    +0.000 OA
ATOM     27  H   UNL     1      15.635  17.896  46.034  0.00  0.00    +0.000 HD
ENDBRANCH  11  26
TORSDOF 6
ENDMDL
MODEL 16
REMARK VINA RESULT:    -5.742      2.600      6.997
REMARK INTER + INTRA:          -7.230
REMARK INTER:                  -6.893
REMARK INTRA:                  -0.336
REMARK UNBOUND:                -0.313
REMARK  Name = opt87.pdb
REMARK  6 active torsions:
REMARK  status: ('A' for Active; 'I' for Inactive)
REMARK    1  A    between atoms: C_3  and  O_5
REMARK    2  A    between atoms: C_6  and  C_10
REMARK    3  A    between atoms: C_8  and  O_12
REMARK    4  A    between atoms: C_16  and  O_19
REMARK    5  A    between atoms: C_17  and  O_20
REMARK    6  A    between atoms: C_21  and  O_22
REMARK                            x       y       z     vdW  Elec       q    Type
REMARK                         _______ _______ _______ _____ _____    ______ ____
ROOT
ATOM      1  O   UNL     1      19.113  16.259  42.545  0.00  0.00    +0.000 OA
ATOM      2  C   UNL     1      18.227  16.117  43.370  0.00  0.00    +0.000 A 
ATOM      3  C   UNL     1      17.163  15.083  43.249  0.00  0.00    +0.000 A 
ATOM      4  C   UNL     1      18.101  16.941  44.587  0.00  0.00    +0.000 A 
ATOM      5  C   UNL     1      16.369  14.995  44.056  0.00  0.00    +0.000 A 
ATOM      6  C   UNL     1      17.035  16.631  45.404  0.00  0.00    +0.000 A 
ATOM      7  C   UNL     1      18.987  18.012  44.988  0.00  0.00    +0.000 A 
ATOM      8  O   UNL     1      16.205  15.582  45.007  0.00  0.00    +0.000 OA
ATOM      9  C   UNL     1      16.828  17.386  46.628  0.00  0.00    +0.000 A 
ATOM     10  C   UNL     1      18.782  18.719  46.164  0.00  0.00    +0.000 A 
ATOM     11  C   UNL     1      17.708  18.416  46.988  0.00  0.00    +0.000 A 
ENDROOT
BRANCH   5  12
ATOM     12  C   UNL     1      15.255  13.976  44.008  0.00  0.00    +0.000 A 
ATOM     13  C   UNL     1      15.484  12.638  44.386  0.00  0.00    +0.000 A 
ATOM     14  C   UNL     1      13.981  14.328  43.521  0.00  0.00    +0.000 A 
ATOM     15  C   UNL     1      14.462  11.688  44.279  0.00  0.00    +0.000 A 
ATOM     16  C   UNL     1      12.970  13.369  43.420  0.00  0.00    +0.000 A 
ATOM     17  C   UNL     1      13.210  12.050  43.795  0.00  0.00    +0.000 A 
BRANCH  15  18
ATOM     18  O   UNL     1      14.659  10.383  44.628  0.00  0.00    +0.000 OA
ATOM     19  H   UNL     1      14.503  10.269  45.574  0.00  0.00    +0.000 HD
ENDBRANCH  15  18
BRANCH  17  20
ATOM     20  O   UNL     1      12.244  11.087  43.686  0.00  0.00    +0.000 OA
ATOM     21  H   UNL     1      12.081  10.926  42.724  0.00  0.00    +0.000 HD
ENDBRANCH  17  20
ENDBRANCH   5  12
BRANCH   3  22
ATOM     22  O   UNL     1      17.331  14.347  42.119  0.00  0.00    +0.000 OA
ATOM     23  H   UNL     1      18.019  13.665  42.318  0.00  0.00    +0.000 HD
ENDBRANCH   3  22
BRANCH   7  24
ATOM     24  O   UNL     1      20.054  18.342  44.218  0.00  0.00    +0.000 OA
ATOM     25  H   UNL     1      20.547  17.516  44.072  0.00  0.00    +0.000 HD
ENDBRANCH   7  24
BRANCH  11  26
ATOM     26  O   UNL     1      17.574  19.164  48.126  0.00  0.00    +0.000 OA
ATOM     27  H   UNL     1      18.200  19.897  48.187  0.00  0.00    +0.000 HD
ENDBRANCH  11  26
TORSDOF 6
ENDMDL
MODEL 17
REMARK VINA RESULT:    -5.735      2.589      4.740
REMARK INTER + INTRA:          -7.222
REMARK INTER:                  -6.911
REMARK INTRA:                  -0.311
REMARK UNBOUND:                -0.313
REMARK  Name = opt87.pdb
REMARK  6 active torsions:
REMARK  status: ('A' for Active; 'I' for Inactive)
REMARK    1  A    between atoms: C_3  and  O_5
REMARK    2  A    between atoms: C_6  and  C_10
REMARK    3  A    between atoms: C_8  and  O_12
REMARK    4  A    between atoms: C_16  and  O_19
REMARK    5  A    between atoms: C_17  and  O_20
REMARK    6  A    between atoms: C_21  and  O_22
REMARK                            x       y       z     vdW  Elec       q    Type
REMARK                         _______ _______ _______ _____ _____    ______ ____
ROOT
ATOM      1  O   UNL     1       8.029  15.655  41.063  0.00  0.00    +0.000 OA
ATOM      2  C   UNL     1       8.469  14.726  41.720  0.00  0.00    +0.000 A 
ATOM      3  C   UNL     1       9.903  14.609  42.102  0.00  0.00    +0.000 A 
ATOM      4  C   UNL     1       7.642  13.613  42.220  0.00  0.00    +0.000 A 
ATOM      5  C   UNL     1      10.249  13.725  42.722  0.00  0.00    +0.000 A 
ATOM      6  C   UNL     1       8.315  12.655  42.948  0.00  0.00    +0.000 A 
ATOM      7  C   UNL     1       6.216  13.453  42.025  0.00  0.00    +0.000 A 
ATOM      8  O   UNL     1       9.685  12.839  43.140  0.00  0.00    +0.000 OA
ATOM      9  C   UNL     1       7.585  11.520  43.485  0.00  0.00    +0.000 A 
ATOM     10  C   UNL     1       5.532  12.368  42.551  0.00  0.00    +0.000 A 
ATOM     11  C   UNL     1       6.204  11.397  43.279  0.00  0.00    +0.000 A 
ENDROOT
BRANCH   5  12
ATOM     12  C   UNL     1      11.685  13.531  43.151  0.00  0.00    +0.000 A 
ATOM     13  C   UNL     1      12.667  13.124  42.226  0.00  0.00    +0.000 A 
ATOM     14  C   UNL     1      12.058  13.688  44.501  0.00  0.00    +0.000 A 
ATOM     15  C   UNL     1      13.980  12.887  42.647  0.00  0.00    +0.000 A 
ATOM     16  C   UNL     1      13.373  13.447  44.907  0.00  0.00    +0.000 A 
ATOM     17  C   UNL     1      14.333  13.044  43.982  0.00  0.00    +0.000 A 
BRANCH  15  18
ATOM     18  O   UNL     1      14.949  12.482  41.774  0.00  0.00    +0.000 OA
ATOM     19  H   UNL     1      15.804  12.455  42.220  0.00  0.00    +0.000 HD
ENDBRANCH  15  18
BRANCH  17  20
ATOM     20  O   UNL     1      15.623  12.783  44.357  0.00  0.00    +0.000 OA
ATOM     21  H   UNL     1      15.952  12.029  43.807  0.00  0.00    +0.000 HD
ENDBRANCH  17  20
ENDBRANCH   5  12
BRANCH   3  22
ATOM     22  O   UNL     1      10.617  15.663  41.626  0.00  0.00    +0.000 OA
ATOM     23  H   UNL     1       9.996  16.431  41.569  0.00  0.00    +0.000 HD
ENDBRANCH   3  22
BRANCH   7  24
ATOM     24  O   UNL     1       5.514  14.378  41.324  0.00  0.00    +0.000 OA
ATOM     25  H   UNL     1       4.737  13.914  40.967  0.00  0.00    +0.000 HD
ENDBRANCH   7  24
BRANCH  11  26
ATOM     26  O   UNL     1       5.456  10.357  43.759  0.00  0.00    +0.000 OA
ATOM     27  H   UNL     1       5.864   9.491  43.629  0.00  0.00    +0.000 HD
ENDBRANCH  11  26
TORSDOF 6
ENDMDL
MODEL 18
REMARK VINA RESULT:    -5.639      1.579      2.392
REMARK INTER + INTRA:          -7.106
REMARK INTER:                  -6.810
REMARK INTRA:                  -0.296
REMARK UNBOUND:                -0.313
REMARK  Name = opt87.pdb
REMARK  6 active torsions:
REMARK  status: ('A' for Active; 'I' for Inactive)
REMARK    1  A    between atoms: C_3  and  O_5
REMARK    2  A    between atoms: C_6  and  C_10
REMARK    3  A    between atoms: C_8  and  O_12
REMARK    4  A    between atoms: C_16  and  O_19
REMARK    5  A    between atoms: C_17  and  O_20
REMARK    6  A    between atoms: C_21  and  O_22
REMARK                            x       y       z     vdW  Elec       q    Type
REMARK                         _______ _______ _______ _____ _____    ______ ____
ROOT
ATOM      1  O   UNL     1       9.002  11.559  42.812  0.00  0.00    +0.000 OA
ATOM      2  C   UNL     1       9.640  12.552  43.114  0.00  0.00    +0.000 A 
ATOM      3  C   UNL     1      11.111  12.534  43.345  0.00  0.00    +0.000 A 
ATOM      4  C   UNL     1       9.042  13.889  43.283  0.00  0.00    +0.000 A 
ATOM      5  C   UNL     1      11.650  13.495  43.616  0.00  0.00    +0.000 A 
ATOM      6  C   UNL     1       9.923  14.893  43.625  0.00  0.00    +0.000 A 
ATOM      7  C   UNL     1       7.645  14.228  43.114  0.00  0.00    +0.000 A 
ATOM      8  O   UNL     1      11.268  14.548  43.764  0.00  0.00    +0.000 OA
ATOM      9  C   UNL     1       9.429  16.246  43.812  0.00  0.00    +0.000 A 
ATOM     10  C   UNL     1       7.190  15.526  43.288  0.00  0.00    +0.000 A 
ATOM     11  C   UNL     1       8.070  16.540  43.638  0.00  0.00    +0.000 A 
ENDROOT
BRANCH   5  12
ATOM     12  C   UNL     1      13.138  13.562  43.867  0.00  0.00    +0.000 A 
ATOM     13  C   UNL     1      14.056  13.475  42.801  0.00  0.00    +0.000 A 
ATOM     14  C   UNL     1      13.641  13.647  45.181  0.00  0.00    +0.000 A 
ATOM     15  C   UNL     1      15.432  13.475  43.051  0.00  0.00    +0.000 A 
ATOM     16  C   UNL     1      15.018  13.647  45.415  0.00  0.00    +0.000 A 
ATOM     17  C   UNL     1      15.913  13.558  44.352  0.00  0.00    +0.000 A 
BRANCH  15  18
ATOM     18  O   UNL     1      16.343  13.381  42.038  0.00  0.00    +0.000 OA
ATOM     19  H   UNL     1      17.229  13.265  42.402  0.00  0.00    +0.000 HD
ENDBRANCH  15  18
BRANCH  17  20
ATOM     20  O   UNL     1      17.266  13.535  44.556  0.00  0.00    +0.000 OA
ATOM     21  H   UNL     1      17.695  13.230  43.718  0.00  0.00    +0.000 HD
ENDBRANCH  17  20
ENDBRANCH   5  12
BRANCH   3  22
ATOM     22  O   UNL     1      11.612  11.283  43.166  0.00  0.00    +0.000 OA
ATOM     23  H   UNL     1      10.990  10.656  43.610  0.00  0.00    +0.000 HD
ENDBRANCH   3  22
BRANCH   7  24
ATOM     24  O   UNL     1       6.747  13.272  42.769  0.00  0.00    +0.000 OA
ATOM     25  H   UNL     1       5.877  13.708  42.766  0.00  0.00    +0.000 HD
ENDBRANCH   7  24
BRANCH  11  26
ATOM     26  O   UNL     1       7.539  17.791  43.795  0.00  0.00    +0.000 OA
ATOM     27  H   UNL     1       8.164  18.439  44.147  0.00  0.00    +0.000 HD
ENDBRANCH  11  26
TORSDOF 6
ENDMDL
MODEL 19
REMARK VINA RESULT:    -5.451      2.219      4.402
REMARK INTER + INTRA:          -6.880
REMARK INTER:                  -6.566
REMARK INTRA:                  -0.313
REMARK UNBOUND:                -0.313
REMARK  Name = opt87.pdb
REMARK  6 active torsions:
REMARK  status: ('A' for Active; 'I' for Inactive)
REMARK    1  A    between atoms: C_3  and  O_5
REMARK    2  A    between atoms: C_6  and  C_10
REMARK    3  A    between atoms: C_8  and  O_12
REMARK    4  A    between atoms: C_16  and  O_19
REMARK    5  A    between atoms: C_17  and  O_20
REMARK    6  A    between atoms: C_21  and  O_22
REMARK                            x       y       z     vdW  Elec       q    Type
REMARK                         _______ _______ _______ _____ _____    ______ ____
ROOT
ATOM      1  O   UNL     1       8.498  17.076  43.781  0.00  0.00    +0.000 OA
ATOM      2  C   UNL     1       8.916  15.931  43.752  0.00  0.00    +0.000 A 
ATOM      3  C   UNL     1      10.365  15.595  43.792  0.00  0.00    +0.000 A 
ATOM      4  C   UNL     1       8.046  14.743  43.681  0.00  0.00    +0.000 A 
ATOM      5  C   UNL     1      10.692  14.508  43.771  0.00  0.00    +0.000 A 
ATOM      6  C   UNL     1       8.700  13.530  43.660  0.00  0.00    +0.000 A 
ATOM      7  C   UNL     1       6.599  14.745  43.643  0.00  0.00    +0.000 A 
ATOM      8  O   UNL     1      10.094  13.551  43.716  0.00  0.00    +0.000 OA
ATOM      9  C   UNL     1       7.928  12.301  43.593  0.00  0.00    +0.000 A 
ATOM     10  C   UNL     1       5.875  13.563  43.588  0.00  0.00    +0.000 A 
ATOM     11  C   UNL     1       6.527  12.339  43.560  0.00  0.00    +0.000 A 
ENDROOT
BRANCH   5  12
ATOM     12  C   UNL     1      12.141  14.082  43.807  0.00  0.00    +0.000 A 
ATOM     13  C   UNL     1      12.768  13.555  42.661  0.00  0.00    +0.000 A 
ATOM     14  C   UNL     1      12.876  14.141  45.008  0.00  0.00    +0.000 A 
ATOM     15  C   UNL     1      14.091  13.105  42.722  0.00  0.00    +0.000 A 
ATOM     16  C   UNL     1      14.197  13.689  45.055  0.00  0.00    +0.000 A 
ATOM     17  C   UNL     1      14.803  13.168  43.915  0.00  0.00    +0.000 A 
BRANCH  15  18
ATOM     18  O   UNL     1      14.720  12.580  41.630  0.00  0.00    +0.000 OA
ATOM     19  H   UNL     1      14.923  11.649  41.783  0.00  0.00    +0.000 HD
ENDBRANCH  15  18
BRANCH  17  20
ATOM     20  O   UNL     1      16.089  12.699  43.938  0.00  0.00    +0.000 OA
ATOM     21  H   UNL     1      16.553  13.045  43.136  0.00  0.00    +0.000 HD
ENDBRANCH  17  20
ENDBRANCH   5  12
BRANCH   3  22
ATOM     22  O   UNL     1      11.121  16.722  43.868  0.00  0.00    +0.000 OA
ATOM     23  H   UNL     1      11.816  16.559  44.553  0.00  0.00    +0.000 HD
ENDBRANCH   3  22
BRANCH   7  24
ATOM     24  O   UNL     1       5.916  15.916  43.672  0.00  0.00    +0.000 OA
ATOM     25  H   UNL     1       5.355  15.922  42.877  0.00  0.00    +0.000 HD
ENDBRANCH   7  24
BRANCH  11  26
ATOM     26  O   UNL     1       5.740  11.222  43.500  0.00  0.00    +0.000 OA
ATOM     27  H   UNL     1       6.210  10.429  43.210  0.00  0.00    +0.000 HD
ENDBRANCH  11  26
TORSDOF 6
ENDMDL
MODEL 20
REMARK VINA RESULT:    -5.420      2.074      7.623
REMARK INTER + INTRA:          -6.842
REMARK INTER:                  -6.467
REMARK INTRA:                  -0.375
REMARK UNBOUND:                -0.313
REMARK  Name = opt87.pdb
REMARK  6 active torsions:
REMARK  status: ('A' for Active; 'I' for Inactive)
REMARK    1  A    between atoms: C_3  and  O_5
REMARK    2  A    between atoms: C_6  and  C_10
REMARK    3  A    between atoms: C_8  and  O_12
REMARK    4  A    between atoms: C_16  and  O_19
REMARK    5  A    between atoms: C_17  and  O_20
REMARK    6  A    between atoms: C_21  and  O_22
REMARK                            x       y       z     vdW  Elec       q    Type
REMARK                         _______ _______ _______ _____ _____    ______ ____
ROOT
ATOM      1  O   UNL     1      13.096  17.133  44.093  0.00  0.00    +0.000 OA
ATOM      2  C   UNL     1      12.615  16.019  43.972  0.00  0.00    +0.000 A 
ATOM      3  C   UNL     1      11.190  15.785  43.614  0.00  0.00    +0.000 A 
ATOM      4  C   UNL     1      13.380  14.772  44.158  0.00  0.00    +0.000 A 
ATOM      5  C   UNL     1      10.803  14.724  43.508  0.00  0.00    +0.000 A 
ATOM      6  C   UNL     1      12.666  13.607  43.977  0.00  0.00    +0.000 A 
ATOM      7  C   UNL     1      14.784  14.673  44.495  0.00  0.00    +0.000 A 
ATOM      8  O   UNL     1      11.319  13.726  43.634  0.00  0.00    +0.000 OA
ATOM      9  C   UNL     1      13.333  12.326  44.136  0.00  0.00    +0.000 A 
ATOM     10  C   UNL     1      15.409  13.444  44.635  0.00  0.00    +0.000 A 
ATOM     11  C   UNL     1      14.695  12.267  44.461  0.00  0.00    +0.000 A 
ENDROOT
BRANCH   5  12
ATOM     12  C   UNL     1       9.371  14.400  43.149  0.00  0.00    +0.000 A 
ATOM     13  C   UNL     1       8.407  14.180  44.152  0.00  0.00    +0.000 A 
ATOM     14  C   UNL     1       8.988  14.245  41.802  0.00  0.00    +0.000 A 
ATOM     15  C   UNL     1       7.100  13.819  43.809  0.00  0.00    +0.000 A 
ATOM     16  C   UNL     1       7.678  13.885  41.474  0.00  0.00    +0.000 A 
ATOM     17  C   UNL     1       6.736  13.669  42.476  0.00  0.00    +0.000 A 
BRANCH  15  18
ATOM     18  O   UNL     1       6.147  13.590  44.761  0.00  0.00    +0.000 OA
ATOM     19  H   UNL     1       5.551  14.346  44.818  0.00  0.00    +0.000 HD
ENDBRANCH  15  18
BRANCH  17  20
ATOM     20  O   UNL     1       5.452  13.295  42.183  0.00  0.00    +0.000 OA
ATOM     21  H   UNL     1       4.890  13.493  42.972  0.00  0.00    +0.000 HD
ENDBRANCH  17  20
ENDBRANCH   5  12
BRANCH   3  22
ATOM     22  O   UNL     1      10.534  16.964  43.444  0.00  0.00    +0.000 OA
ATOM     23  H   UNL     1      10.023  16.892  42.600  0.00  0.00    +0.000 HD
ENDBRANCH   3  22
BRANCH   7  24
ATOM     24  O   UNL     1      15.525  15.795  44.672  0.00  0.00    +0.000 OA
ATOM     25  H   UNL     1      15.015  16.365  45.273  0.00  0.00    +0.000 HD
ENDBRANCH   7  24
BRANCH  11  26
ATOM     26  O   UNL     1      15.385  11.097  44.622  0.00  0.00    +0.000 OA
ATOM     27  H   UNL     1      15.088  10.386  44.039  0.00  0.00    +0.000 HD
ENDBRANCH  11  26
TORSDOF 6
ENDMDL
