MODEL 1
REMARK VINA RESULT:    -6.246      0.000      0.000
REMARK INTER + INTRA:          -7.195
REMARK INTER:                  -6.976
REMARK INTRA:                  -0.219
REMARK UNBOUND:                -0.219
REMARK  Name = opt67.pdb
REMARK  6 active torsions:
REMARK  status: ('A' for Active; 'I' for Inactive)
REMARK    1  A    between atoms: C_2  and  O_3
REMARK    2  A    between atoms: O_3  and  C_5
REMARK    3  A    between atoms: N_4  and  C_6
REMARK    4  A    between atoms: C_12  and  C_16
REMARK    5  A    between atoms: N_13  and  C_17
REMARK    6  A    between atoms: N_18  and  C_20
REMARK                            x       y       z     vdW  Elec       q    Type
REMARK                         _______ _______ _______ _____ _____    ______ ____
ROOT
ATOM      1  C   UNL     1      13.260  13.144  43.734  0.00  0.00    +0.000 A 
ATOM      2  C   UNL     1      13.907  14.219  44.343  0.00  0.00    +0.000 A 
ATOM      3  C   UNL     1      13.822  12.493  42.634  0.00  0.00    +0.000 A 
ATOM      4  C   UNL     1      15.173  14.686  43.832  0.00  0.00    +0.000 A 
ATOM      5  C   UNL     1      15.057  12.905  42.026  0.00  0.00    +0.000 A 
ATOM      6  C   UNL     1      15.777  13.918  42.744  0.00  0.00    +0.000 A 
ATOM      7  C   UNL     1      16.252  15.135  44.770  0.00  0.00    +0.000 C 
ATOM      8  N   UNL     1      17.105  14.304  42.778  0.00  0.00    +0.000 N 
ATOM      9  C   UNL     1      17.202  15.461  43.640  0.00  0.00    +0.000 C 
ATOM     10  C   UNL     1      16.311  16.509  45.443  0.00  0.00    +0.000 C 
ATOM     11  C   UNL     1      16.613  13.971  45.742  0.00  0.00    +0.000 C 
ATOM     12  C   UNL     1      17.848  14.341  41.517  0.00  0.00    +0.000 C 
ATOM     13  N   UNL     1      18.417  16.020  44.243  0.00  0.00    +0.000 NA
ATOM     14  C   UNL     1      17.853  16.798  45.392  0.00  0.00    +0.000 C 
ATOM     15  C   UNL     1      19.508  15.071  44.578  0.00  0.00    +0.000 C 
ENDROOT
BRANCH   1  16
ATOM     16  O   UNL     1      12.084  12.655  44.265  0.00  0.00    +0.000 OA
BRANCH  16  18
ATOM     17  O   UNL     1      10.370  12.162  42.852  0.00  0.00    +0.000 OA
ATOM     18  C   UNL     1      10.884  12.872  43.695  0.00  0.00    +0.000 C 
ATOM     19  N   UNL     1      10.188  13.699  44.499  0.00  0.00    +0.000 N 
ATOM     20  C   UNL     1       8.723  13.764  44.532  0.00  0.00    +0.000 C 
ATOM     21  H   UNL     1      10.682  14.123  45.269  0.00  0.00    +0.000 HD
ENDBRANCH  16  18
ENDBRANCH   1  16
TORSDOF 2
ENDMDL
MODEL 2
REMARK VINA RESULT:    -6.102      2.507      6.237
REMARK INTER + INTRA:          -7.034
REMARK INTER:                  -6.830
REMARK INTRA:                  -0.205
REMARK UNBOUND:                -0.219
REMARK  Name = opt67.pdb
REMARK  6 active torsions:
REMARK  status: ('A' for Active; 'I' for Inactive)
REMARK    1  A    between atoms: C_2  and  O_3
REMARK    2  A    between atoms: O_3  and  C_5
REMARK    3  A    between atoms: N_4  and  C_6
REMARK    4  A    between atoms: C_12  and  C_16
REMARK    5  A    between atoms: N_13  and  C_17
REMARK    6  A    between atoms: N_18  and  C_20
REMARK                            x       y       z     vdW  Elec       q    Type
REMARK                         _______ _______ _______ _____ _____    ______ ____
ROOT
ATOM      1  C   UNL     1      14.511  12.788  44.415  0.00  0.00    +0.000 A 
ATOM      2  C   UNL     1      13.847  13.993  44.648  0.00  0.00    +0.000 A 
ATOM      3  C   UNL     1      13.852  11.701  43.838  0.00  0.00    +0.000 A 
ATOM      4  C   UNL     1      12.452  14.129  44.305  0.00  0.00    +0.000 A 
ATOM      5  C   UNL     1      12.456  11.721  43.497  0.00  0.00    +0.000 A 
ATOM      6  C   UNL     1      11.823  13.005  43.613  0.00  0.00    +0.000 A 
ATOM      7  C   UNL     1      11.934  15.410  43.727  0.00  0.00    +0.000 C 
ATOM      8  N   UNL     1      10.697  13.569  43.043  0.00  0.00    +0.000 N 
ATOM      9  C   UNL     1      10.521  14.880  43.627  0.00  0.00    +0.000 C 
ATOM     10  C   UNL     1      11.589  16.661  44.540  0.00  0.00    +0.000 C 
ATOM     11  C   UNL     1      12.707  15.738  42.414  0.00  0.00    +0.000 C 
ATOM     12  C   UNL     1       9.503  12.735  42.894  0.00  0.00    +0.000 C 
ATOM     13  N   UNL     1       9.684  15.973  43.122  0.00  0.00    +0.000 NA
ATOM     14  C   UNL     1      10.310  17.164  43.782  0.00  0.00    +0.000 C 
ATOM     15  C   UNL     1       9.505  16.069  41.651  0.00  0.00    +0.000 C 
ENDROOT
BRANCH   1  16
ATOM     16  O   UNL     1      15.861  12.681  44.679  0.00  0.00    +0.000 OA
BRANCH  16  18
ATOM     17  O   UNL     1      16.791  13.891  46.367  0.00  0.00    +0.000 OA
ATOM     18  C   UNL     1      16.585  13.698  45.184  0.00  0.00    +0.000 C 
ATOM     19  N   UNL     1      17.379  14.168  44.203  0.00  0.00    +0.000 N 
ATOM     20  C   UNL     1      18.641  14.875  44.442  0.00  0.00    +0.000 C 
ATOM     21  H   UNL     1      17.217  13.822  43.269  0.00  0.00    +0.000 HD
ENDBRANCH  16  18
ENDBRANCH   1  16
TORSDOF 2
ENDMDL
MODEL 3
REMARK VINA RESULT:    -5.985      2.570      4.529
REMARK INTER + INTRA:          -6.904
REMARK INTER:                  -6.660
REMARK INTRA:                  -0.244
REMARK UNBOUND:                -0.219
REMARK  Name = opt67.pdb
REMARK  6 active torsions:
REMARK  status: ('A' for Active; 'I' for Inactive)
REMARK    1  A    between atoms: C_2  and  O_3
REMARK    2  A    between atoms: O_3  and  C_5
REMARK    3  A    between atoms: N_4  and  C_6
REMARK    4  A    between atoms: C_12  and  C_16
REMARK    5  A    between atoms: N_13  and  C_17
REMARK    6  A    between atoms: N_18  and  C_20
REMARK                            x       y       z     vdW  Elec       q    Type
REMARK                         _______ _______ _______ _____ _____    ______ ____
ROOT
ATOM      1  C   UNL     1       9.055  14.150  43.941  0.00  0.00    +0.000 A 
ATOM      2  C   UNL     1      10.241  13.552  44.365  0.00  0.00    +0.000 A 
ATOM      3  C   UNL     1       9.000  15.514  43.646  0.00  0.00    +0.000 A 
ATOM      4  C   UNL     1      11.437  14.344  44.519  0.00  0.00    +0.000 A 
ATOM      5  C   UNL     1      10.123  16.396  43.804  0.00  0.00    +0.000 A 
ATOM      6  C   UNL     1      11.367  15.745  44.106  0.00  0.00    +0.000 A 
ATOM      7  C   UNL     1      12.773  13.788  44.129  0.00  0.00    +0.000 C 
ATOM      8  N   UNL     1      12.693  16.100  43.947  0.00  0.00    +0.000 N 
ATOM      9  C   UNL     1      13.500  15.051  44.530  0.00  0.00    +0.000 C 
ATOM     10  C   UNL     1      13.607  12.832  44.988  0.00  0.00    +0.000 C 
ATOM     11  C   UNL     1      12.748  13.381  42.625  0.00  0.00    +0.000 C 
ATOM     12  C   UNL     1      13.081  17.483  44.232  0.00  0.00    +0.000 C 
ATOM     13  N   UNL     1      14.932  14.811  44.323  0.00  0.00    +0.000 NA
ATOM     14  C   UNL     1      15.055  13.367  44.705  0.00  0.00    +0.000 C 
ATOM     15  C   UNL     1      15.498  15.180  43.002  0.00  0.00    +0.000 C 
ENDROOT
BRANCH   1  16
ATOM     16  O   UNL     1       7.930  13.380  43.728  0.00  0.00    +0.000 OA
BRANCH  16  18
ATOM     17  O   UNL     1       8.043  11.254  42.925  0.00  0.00    +0.000 OA
ATOM     18  C   UNL     1       7.862  12.445  42.761  0.00  0.00    +0.000 C 
ATOM     19  N   UNL     1       7.148  12.958  41.741  0.00  0.00    +0.000 N 
ATOM     20  C   UNL     1       6.414  12.142  40.767  0.00  0.00    +0.000 C 
ATOM     21  H   UNL     1       6.920  13.939  41.780  0.00  0.00    +0.000 HD
ENDBRANCH  16  18
ENDBRANCH   1  16
TORSDOF 2
ENDMDL
MODEL 4
REMARK VINA RESULT:    -5.957      1.898      3.115
REMARK INTER + INTRA:          -6.873
REMARK INTER:                  -6.709
REMARK INTRA:                  -0.164
REMARK UNBOUND:                -0.219
REMARK  Name = opt67.pdb
REMARK  6 active torsions:
REMARK  status: ('A' for Active; 'I' for Inactive)
REMARK    1  A    between atoms: C_2  and  O_3
REMARK    2  A    between atoms: O_3  and  C_5
REMARK    3  A    between atoms: N_4  and  C_6
REMARK    4  A    between atoms: C_12  and  C_16
REMARK    5  A    between atoms: N_13  and  C_17
REMARK    6  A    between atoms: N_18  and  C_20
REMARK                            x       y       z     vdW  Elec       q    Type
REMARK                         _______ _______ _______ _____ _____    ______ ____
ROOT
ATOM      1  C   UNL     1      11.210  13.500  44.070  0.00  0.00    +0.000 A 
ATOM      2  C   UNL     1      12.505  13.244  44.518  0.00  0.00    +0.000 A 
ATOM      3  C   UNL     1      10.755  14.807  43.887  0.00  0.00    +0.000 A 
ATOM      4  C   UNL     1      13.398  14.338  44.817  0.00  0.00    +0.000 A 
ATOM      5  C   UNL     1      11.551  15.964  44.193  0.00  0.00    +0.000 A 
ATOM      6  C   UNL     1      12.921  15.688  44.519  0.00  0.00    +0.000 A 
ATOM      7  C   UNL     1      14.853  14.248  44.470  0.00  0.00    +0.000 C 
ATOM      8  N   UNL     1      14.082  16.437  44.478  0.00  0.00    +0.000 N 
ATOM      9  C   UNL     1      15.147  15.623  45.022  0.00  0.00    +0.000 C 
ATOM     10  C   UNL     1      15.905  13.504  45.297  0.00  0.00    +0.000 C 
ATOM     11  C   UNL     1      15.008  14.005  42.938  0.00  0.00    +0.000 C 
ATOM     12  C   UNL     1      14.021  17.836  44.903  0.00  0.00    +0.000 C 
ATOM     13  N   UNL     1      16.591  15.844  44.889  0.00  0.00    +0.000 NA
ATOM     14  C   UNL     1      17.132  14.472  45.156  0.00  0.00    +0.000 C 
ATOM     15  C   UNL     1      17.067  16.496  43.644  0.00  0.00    +0.000 C 
ENDROOT
BRANCH   1  16
ATOM     16  O   UNL     1      10.381  12.454  43.720  0.00  0.00    +0.000 OA
BRANCH  16  18
ATOM     17  O   UNL     1       9.260  12.537  41.741  0.00  0.00    +0.000 OA
ATOM     18  C   UNL     1       9.286  12.620  42.954  0.00  0.00    +0.000 C 
ATOM     19  N   UNL     1       8.204  12.444  43.736  0.00  0.00    +0.000 N 
ATOM     20  C   UNL     1       6.891  12.026  43.232  0.00  0.00    +0.000 C 
ATOM     21  H   UNL     1       8.355  12.373  44.731  0.00  0.00    +0.000 HD
ENDBRANCH  16  18
ENDBRANCH   1  16
TORSDOF 2
ENDMDL
MODEL 5
REMARK VINA RESULT:    -5.842      2.092      3.291
REMARK INTER + INTRA:          -6.744
REMARK INTER:                  -6.484
REMARK INTRA:                  -0.260
REMARK UNBOUND:                -0.219
REMARK  Name = opt67.pdb
REMARK  6 active torsions:
REMARK  status: ('A' for Active; 'I' for Inactive)
REMARK    1  A    between atoms: C_2  and  O_3
REMARK    2  A    between atoms: O_3  and  C_5
REMARK    3  A    between atoms: N_4  and  C_6
REMARK    4  A    between atoms: C_12  and  C_16
REMARK    5  A    between atoms: N_13  and  C_17
REMARK    6  A    between atoms: N_18  and  C_20
REMARK                            x       y       z     vdW  Elec       q    Type
REMARK                         _______ _______ _______ _____ _____    ______ ____
ROOT
ATOM      1  C   UNL     1      10.341  14.131  43.913  0.00  0.00    +0.000 A 
ATOM      2  C   UNL     1      11.551  13.850  44.547  0.00  0.00    +0.000 A 
ATOM      3  C   UNL     1      10.259  15.096  42.908  0.00  0.00    +0.000 A 
ATOM      4  C   UNL     1      12.746  14.571  44.177  0.00  0.00    +0.000 A 
ATOM      5  C   UNL     1      11.380  15.895  42.495  0.00  0.00    +0.000 A 
ATOM      6  C   UNL     1      12.643  15.502  43.054  0.00  0.00    +0.000 A 
ATOM      7  C   UNL     1      14.067  13.867  44.108  0.00  0.00    +0.000 C 
ATOM      8  N   UNL     1      13.957  15.682  42.666  0.00  0.00    +0.000 N 
ATOM      9  C   UNL     1      14.800  15.125  43.700  0.00  0.00    +0.000 C 
ATOM     10  C   UNL     1      14.949  13.541  45.316  0.00  0.00    +0.000 C 
ATOM     11  C   UNL     1      13.975  12.689  43.092  0.00  0.00    +0.000 C 
ATOM     12  C   UNL     1      14.345  16.980  42.111  0.00  0.00    +0.000 C 
ATOM     13  N   UNL     1      16.223  14.783  43.600  0.00  0.00    +0.000 NA
ATOM     14  C   UNL     1      16.377  13.799  44.719  0.00  0.00    +0.000 C 
ATOM     15  C   UNL     1      16.723  14.340  42.275  0.00  0.00    +0.000 C 
ENDROOT
BRANCH   1  16
ATOM     16  O   UNL     1       9.215  13.394  44.218  0.00  0.00    +0.000 OA
BRANCH  16  18
ATOM     17  O   UNL     1       9.316  11.543  42.899  0.00  0.00    +0.000 OA
ATOM     18  C   UNL     1       8.700  12.474  43.381  0.00  0.00    +0.000 C 
ATOM     19  N   UNL     1       7.361  12.486  43.526  0.00  0.00    +0.000 N 
ATOM     20  C   UNL     1       6.496  11.341  43.222  0.00  0.00    +0.000 C 
ATOM     21  H   UNL     1       6.960  13.228  44.079  0.00  0.00    +0.000 HD
ENDBRANCH  16  18
ENDBRANCH   1  16
TORSDOF 2
ENDMDL
MODEL 6
REMARK VINA RESULT:    -5.778      2.566      4.583
REMARK INTER + INTRA:          -6.672
REMARK INTER:                  -6.435
REMARK INTRA:                  -0.237
REMARK UNBOUND:                -0.219
REMARK  Name = opt67.pdb
REMARK  6 active torsions:
REMARK  status: ('A' for Active; 'I' for Inactive)
REMARK    1  A    between atoms: C_2  and  O_3
REMARK    2  A    between atoms: O_3  and  C_5
REMARK    3  A    between atoms: N_4  and  C_6
REMARK    4  A    between atoms: C_12  and  C_16
REMARK    5  A    between atoms: N_13  and  C_17
REMARK    6  A    between atoms: N_18  and  C_20
REMARK                            x       y       z     vdW  Elec       q    Type
REMARK                         _______ _______ _______ _____ _____    ______ ____
ROOT
ATOM      1  C   UNL     1       9.176  14.078  43.399  0.00  0.00    +0.000 A 
ATOM      2  C   UNL     1      10.326  13.479  43.913  0.00  0.00    +0.000 A 
ATOM      3  C   UNL     1       9.059  15.466  43.319  0.00  0.00    +0.000 A 
ATOM      4  C   UNL     1      11.417  14.297  44.388  0.00  0.00    +0.000 A 
ATOM      5  C   UNL     1      10.070  16.367  43.800  0.00  0.00    +0.000 A 
ATOM      6  C   UNL     1      11.299  15.742  44.197  0.00  0.00    +0.000 A 
ATOM      7  C   UNL     1      12.837  13.886  44.142  0.00  0.00    +0.000 C 
ATOM      8  N   UNL     1      12.602  16.188  44.319  0.00  0.00    +0.000 N 
ATOM      9  C   UNL     1      13.389  15.099  44.854  0.00  0.00    +0.000 C 
ATOM     10  C   UNL     1      13.601  12.844  44.963  0.00  0.00    +0.000 C 
ATOM     11  C   UNL     1      13.078  13.741  42.609  0.00  0.00    +0.000 C 
ATOM     12  C   UNL     1      12.829  17.521  44.881  0.00  0.00    +0.000 C 
ATOM     13  N   UNL     1      14.851  14.975  44.851  0.00  0.00    +0.000 NA
ATOM     14  C   UNL     1      15.028  13.496  45.014  0.00  0.00    +0.000 C 
ATOM     15  C   UNL     1      15.584  15.593  43.718  0.00  0.00    +0.000 C 
ENDROOT
BRANCH   1  16
ATOM     16  O   UNL     1       8.163  13.296  42.883  0.00  0.00    +0.000 OA
BRANCH  16  18
ATOM     17  O   UNL     1       6.327  12.976  44.189  0.00  0.00    +0.000 OA
ATOM     18  C   UNL     1       7.342  12.564  43.660  0.00  0.00    +0.000 C 
ATOM     19  N   UNL     1       7.568  11.264  43.390  0.00  0.00    +0.000 N 
ATOM     20  C   UNL     1       6.578  10.202  43.602  0.00  0.00    +0.000 C 
ATOM     21  H   UNL     1       8.360  11.040  42.809  0.00  0.00    +0.000 HD
ENDBRANCH  16  18
ENDBRANCH   1  16
TORSDOF 2
ENDMDL
MODEL 7
REMARK VINA RESULT:    -5.761      2.662      7.585
REMARK INTER + INTRA:          -6.654
REMARK INTER:                  -6.475
REMARK INTRA:                  -0.179
REMARK UNBOUND:                -0.219
REMARK  Name = opt67.pdb
REMARK  6 active torsions:
REMARK  status: ('A' for Active; 'I' for Inactive)
REMARK    1  A    between atoms: C_2  and  O_3
REMARK    2  A    between atoms: O_3  and  C_5
REMARK    3  A    between atoms: N_4  and  C_6
REMARK    4  A    between atoms: C_12  and  C_16
REMARK    5  A    between atoms: N_13  and  C_17
REMARK    6  A    between atoms: N_18  and  C_20
REMARK                            x       y       z     vdW  Elec       q    Type
REMARK                         _______ _______ _______ _____ _____    ______ ____
ROOT
ATOM      1  C   UNL     1      12.276  13.650  44.416  0.00  0.00    +0.000 A 
ATOM      2  C   UNL     1      11.218  13.227  43.612  0.00  0.00    +0.000 A 
ATOM      3  C   UNL     1      12.426  14.993  44.765  0.00  0.00    +0.000 A 
ATOM      4  C   UNL     1      10.261  14.185  43.112  0.00  0.00    +0.000 A 
ATOM      5  C   UNL     1      11.551  16.029  44.288  0.00  0.00    +0.000 A 
ATOM      6  C   UNL     1      10.393  15.565  43.579  0.00  0.00    +0.000 A 
ATOM      7  C   UNL     1       8.806  13.835  43.032  0.00  0.00    +0.000 C 
ATOM      8  N   UNL     1       9.150  16.112  43.318  0.00  0.00    +0.000 N 
ATOM      9  C   UNL     1       8.435  15.187  42.467  0.00  0.00    +0.000 C 
ATOM     10  C   UNL     1       8.167  13.003  41.916  0.00  0.00    +0.000 C 
ATOM     11  C   UNL     1       8.287  13.444  44.448  0.00  0.00    +0.000 C 
ATOM     12  C   UNL     1       9.076  17.533  42.976  0.00  0.00    +0.000 C 
ATOM     13  N   UNL     1       6.994  15.161  42.196  0.00  0.00    +0.000 NA
ATOM     14  C   UNL     1       6.797  13.748  41.739  0.00  0.00    +0.000 C 
ATOM     15  C   UNL     1       6.090  15.623  43.279  0.00  0.00    +0.000 C 
ENDROOT
BRANCH   1  16
ATOM     16  O   UNL     1      13.151  12.724  44.948  0.00  0.00    +0.000 OA
BRANCH  16  18
ATOM     17  O   UNL     1      14.892  12.598  43.489  0.00  0.00    +0.000 OA
ATOM     18  C   UNL     1      14.456  12.686  44.621  0.00  0.00    +0.000 C 
ATOM     19  N   UNL     1      15.156  13.198  45.651  0.00  0.00    +0.000 N 
ATOM     20  C   UNL     1      16.483  13.808  45.514  0.00  0.00    +0.000 C 
ATOM     21  H   UNL     1      14.657  13.377  46.509  0.00  0.00    +0.000 HD
ENDBRANCH  16  18
ENDBRANCH   1  16
TORSDOF 2
ENDMDL
MODEL 8
REMARK VINA RESULT:    -5.605      3.035      6.390
REMARK INTER + INTRA:          -6.479
REMARK INTER:                  -6.238
REMARK INTRA:                  -0.242
REMARK UNBOUND:                -0.219
REMARK  Name = opt67.pdb
REMARK  6 active torsions:
REMARK  status: ('A' for Active; 'I' for Inactive)
REMARK    1  A    between atoms: C_2  and  O_3
REMARK    2  A    between atoms: O_3  and  C_5
REMARK    3  A    between atoms: N_4  and  C_6
REMARK    4  A    between atoms: C_12  and  C_16
REMARK    5  A    between atoms: N_13  and  C_17
REMARK    6  A    between atoms: N_18  and  C_20
REMARK                            x       y       z     vdW  Elec       q    Type
REMARK                         _______ _______ _______ _____ _____    ______ ____
ROOT
ATOM      1  C   UNL     1      16.250  15.970  44.621  0.00  0.00    +0.000 A 
ATOM      2  C   UNL     1      14.864  15.953  44.777  0.00  0.00    +0.000 A 
ATOM      3  C   UNL     1      16.967  14.793  44.405  0.00  0.00    +0.000 A 
ATOM      4  C   UNL     1      14.146  14.701  44.731  0.00  0.00    +0.000 A 
ATOM      5  C   UNL     1      16.353  13.494  44.381  0.00  0.00    +0.000 A 
ATOM      6  C   UNL     1      14.917  13.502  44.405  0.00  0.00    +0.000 A 
ATOM      7  C   UNL     1      12.808  14.617  44.063  0.00  0.00    +0.000 C 
ATOM      8  N   UNL     1      13.950  12.598  44.006  0.00  0.00    +0.000 N 
ATOM      9  C   UNL     1      12.662  13.145  44.372  0.00  0.00    +0.000 C 
ATOM     10  C   UNL     1      11.484  15.055  44.698  0.00  0.00    +0.000 C 
ATOM     11  C   UNL     1      12.940  15.063  42.576  0.00  0.00    +0.000 C 
ATOM     12  C   UNL     1      14.177  11.177  44.273  0.00  0.00    +0.000 C 
ATOM     13  N   UNL     1      11.346  12.726  43.878  0.00  0.00    +0.000 NA
ATOM     14  C   UNL     1      10.516  13.942  44.163  0.00  0.00    +0.000 C 
ATOM     15  C   UNL     1      11.275  12.206  42.490  0.00  0.00    +0.000 C 
ENDROOT
BRANCH   1  16
ATOM     16  O   UNL     1      16.926  17.173  44.597  0.00  0.00    +0.000 OA
BRANCH  16  18
ATOM     17  O   UNL     1      19.041  17.871  45.062  0.00  0.00    +0.000 OA
ATOM     18  C   UNL     1      17.960  17.441  45.416  0.00  0.00    +0.000 C 
ATOM     19  N   UNL     1      17.473  17.585  46.663  0.00  0.00    +0.000 N 
ATOM     20  C   UNL     1      18.134  18.368  47.713  0.00  0.00    +0.000 C 
ATOM     21  H   UNL     1      16.508  17.338  46.817  0.00  0.00    +0.000 HD
ENDBRANCH  16  18
ENDBRANCH   1  16
TORSDOF 2
ENDMDL
MODEL 9
REMARK VINA RESULT:    -5.508      3.312      5.696
REMARK INTER + INTRA:          -6.371
REMARK INTER:                  -6.314
REMARK INTRA:                  -0.057
REMARK UNBOUND:                -0.219
REMARK  Name = opt67.pdb
REMARK  6 active torsions:
REMARK  status: ('A' for Active; 'I' for Inactive)
REMARK    1  A    between atoms: C_2  and  O_3
REMARK    2  A    between atoms: O_3  and  C_5
REMARK    3  A    between atoms: N_4  and  C_6
REMARK    4  A    between atoms: C_12  and  C_16
REMARK    5  A    between atoms: N_13  and  C_17
REMARK    6  A    between atoms: N_18  and  C_20
REMARK                            x       y       z     vdW  Elec       q    Type
REMARK                         _______ _______ _______ _____ _____    ______ ____
ROOT
ATOM      1  C   UNL     1      12.524  13.342  44.475  0.00  0.00    +0.000 A 
ATOM      2  C   UNL     1      12.714  14.652  44.915  0.00  0.00    +0.000 A 
ATOM      3  C   UNL     1      11.459  13.010  43.637  0.00  0.00    +0.000 A 
ATOM      4  C   UNL     1      11.794  15.690  44.516  0.00  0.00    +0.000 A 
ATOM      5  C   UNL     1      10.467  13.960  43.215  0.00  0.00    +0.000 A 
ATOM      6  C   UNL     1      10.751  15.325  43.559  0.00  0.00    +0.000 A 
ATOM      7  C   UNL     1      12.295  17.064  44.190  0.00  0.00    +0.000 C 
ATOM      8  N   UNL     1      10.343  16.543  43.048  0.00  0.00    +0.000 N 
ATOM      9  C   UNL     1      10.907  17.579  43.885  0.00  0.00    +0.000 C 
ATOM     10  C   UNL     1      12.649  18.135  45.226  0.00  0.00    +0.000 C 
ATOM     11  C   UNL     1      13.335  16.978  43.032  0.00  0.00    +0.000 C 
ATOM     12  C   UNL     1       8.944  16.693  42.645  0.00  0.00    +0.000 C 
ATOM     13  N   UNL     1      11.033  19.006  43.569  0.00  0.00    +0.000 NA
ATOM     14  C   UNL     1      12.122  19.428  44.509  0.00  0.00    +0.000 C 
ATOM     15  C   UNL     1      11.231  19.372  42.145  0.00  0.00    +0.000 C 
ENDROOT
BRANCH   1  16
ATOM     16  O   UNL     1      13.442  12.365  44.801  0.00  0.00    +0.000 OA
BRANCH  16  18
ATOM     17  O   UNL     1      15.200  12.383  43.357  0.00  0.00    +0.000 OA
ATOM     18  C   UNL     1      14.747  12.458  44.483  0.00  0.00    +0.000 C 
ATOM     19  N   UNL     1      15.378  13.073  45.501  0.00  0.00    +0.000 N 
ATOM     20  C   UNL     1      16.633  13.818  45.354  0.00  0.00    +0.000 C 
ATOM     21  H   UNL     1      14.855  13.222  46.350  0.00  0.00    +0.000 HD
ENDBRANCH  16  18
ENDBRANCH   1  16
TORSDOF 2
ENDMDL
MODEL 10
REMARK VINA RESULT:    -5.487      2.074      2.989
REMARK INTER + INTRA:          -6.348
REMARK INTER:                  -6.104
REMARK INTRA:                  -0.244
REMARK UNBOUND:                -0.219
REMARK  Name = opt67.pdb
REMARK  6 active torsions:
REMARK  status: ('A' for Active; 'I' for Inactive)
REMARK    1  A    between atoms: C_2  and  O_3
REMARK    2  A    between atoms: O_3  and  C_5
REMARK    3  A    between atoms: N_4  and  C_6
REMARK    4  A    between atoms: C_12  and  C_16
REMARK    5  A    between atoms: N_13  and  C_17
REMARK    6  A    between atoms: N_18  and  C_20
REMARK                            x       y       z     vdW  Elec       q    Type
REMARK                         _______ _______ _______ _____ _____    ______ ____
ROOT
ATOM      1  C   UNL     1      12.560  12.505  43.187  0.00  0.00    +0.000 A 
ATOM      2  C   UNL     1      12.703  13.829  42.771  0.00  0.00    +0.000 A 
ATOM      3  C   UNL     1      13.458  11.932  44.089  0.00  0.00    +0.000 A 
ATOM      4  C   UNL     1      13.799  14.628  43.262  0.00  0.00    +0.000 A 
ATOM      5  C   UNL     1      14.604  12.629  44.606  0.00  0.00    +0.000 A 
ATOM      6  C   UNL     1      14.660  14.026  44.280  0.00  0.00    +0.000 A 
ATOM      7  C   UNL     1      13.597  16.076  43.589  0.00  0.00    +0.000 C 
ATOM      8  N   UNL     1      15.291  15.115  44.851  0.00  0.00    +0.000 N 
ATOM      9  C   UNL     1      15.039  16.261  44.005  0.00  0.00    +0.000 C 
ATOM     10  C   UNL     1      13.571  17.210  42.560  0.00  0.00    +0.000 C 
ATOM     11  C   UNL     1      12.481  16.215  44.668  0.00  0.00    +0.000 C 
ATOM     12  C   UNL     1      16.654  14.941  45.356  0.00  0.00    +0.000 C 
ATOM     13  N   UNL     1      15.212  17.676  44.350  0.00  0.00    +0.000 NA
ATOM     14  C   UNL     1      14.319  18.343  43.348  0.00  0.00    +0.000 C 
ATOM     15  C   UNL     1      14.996  18.062  45.766  0.00  0.00    +0.000 C 
ENDROOT
BRANCH   1  16
ATOM     16  O   UNL     1      11.474  11.763  42.771  0.00  0.00    +0.000 OA
BRANCH  16  18
ATOM     17  O   UNL     1       9.974  12.397  41.181  0.00  0.00    +0.000 OA
ATOM     18  C   UNL     1      10.329  12.329  42.342  0.00  0.00    +0.000 C 
ATOM     19  N   UNL     1       9.481  12.388  43.386  0.00  0.00    +0.000 N 
ATOM     20  C   UNL     1       8.021  12.432  43.251  0.00  0.00    +0.000 C 
ATOM     21  H   UNL     1       9.849  12.162  44.298  0.00  0.00    +0.000 HD
ENDBRANCH  16  18
ENDBRANCH   1  16
TORSDOF 2
ENDMDL
MODEL 11
REMARK VINA RESULT:    -5.442      2.224      3.330
REMARK INTER + INTRA:          -6.297
REMARK INTER:                  -6.108
REMARK INTRA:                  -0.189
REMARK UNBOUND:                -0.219
REMARK  Name = opt67.pdb
REMARK  6 active torsions:
REMARK  status: ('A' for Active; 'I' for Inactive)
REMARK    1  A    between atoms: C_2  and  O_3
REMARK    2  A    between atoms: O_3  and  C_5
REMARK    3  A    between atoms: N_4  and  C_6
REMARK    4  A    between atoms: C_12  and  C_16
REMARK    5  A    between atoms: N_13  and  C_17
REMARK    6  A    between atoms: N_18  and  C_20
REMARK                            x       y       z     vdW  Elec       q    Type
REMARK                         _______ _______ _______ _____ _____    ______ ____
ROOT
ATOM      1  C   UNL     1       9.910  13.272  43.355  0.00  0.00    +0.000 A 
ATOM      2  C   UNL     1      10.800  14.247  43.804  0.00  0.00    +0.000 A 
ATOM      3  C   UNL     1      10.316  12.280  42.461  0.00  0.00    +0.000 A 
ATOM      4  C   UNL     1      12.165  14.252  43.335  0.00  0.00    +0.000 A 
ATOM      5  C   UNL     1      11.640  12.220  41.906  0.00  0.00    +0.000 A 
ATOM      6  C   UNL     1      12.580  13.142  42.479  0.00  0.00    +0.000 A 
ATOM      7  C   UNL     1      13.287  14.596  44.266  0.00  0.00    +0.000 C 
ATOM      8  N   UNL     1      13.960  13.170  42.564  0.00  0.00    +0.000 N 
ATOM      9  C   UNL     1      14.334  14.418  43.191  0.00  0.00    +0.000 C 
ATOM     10  C   UNL     1      13.691  16.019  44.663  0.00  0.00    +0.000 C 
ATOM     11  C   UNL     1      13.278  13.613  45.476  0.00  0.00    +0.000 C 
ATOM     12  C   UNL     1      14.735  12.746  41.396  0.00  0.00    +0.000 C 
ATOM     13  N   UNL     1      15.630  14.760  43.787  0.00  0.00    +0.000 NA
ATOM     14  C   UNL     1      15.254  15.883  44.705  0.00  0.00    +0.000 C 
ATOM     15  C   UNL     1      16.407  13.655  44.402  0.00  0.00    +0.000 C 
ENDROOT
BRANCH   1  16
ATOM     16  O   UNL     1       8.625  13.227  43.856  0.00  0.00    +0.000 OA
BRANCH  16  18
ATOM     17  O   UNL     1       7.207  11.483  43.499  0.00  0.00    +0.000 OA
ATOM     18  C   UNL     1       7.620  12.593  43.222  0.00  0.00    +0.000 C 
ATOM     19  N   UNL     1       6.888  13.521  42.576  0.00  0.00    +0.000 N 
ATOM     20  C   UNL     1       5.475  13.347  42.224  0.00  0.00    +0.000 C 
ATOM     21  H   UNL     1       7.257  14.459  42.536  0.00  0.00    +0.000 HD
ENDBRANCH  16  18
ENDBRANCH   1  16
TORSDOF 2
ENDMDL
MODEL 12
REMARK VINA RESULT:    -5.359      2.006      2.534
REMARK INTER + INTRA:          -6.204
REMARK INTER:                  -5.953
REMARK INTRA:                  -0.251
REMARK UNBOUND:                -0.219
REMARK  Name = opt67.pdb
REMARK  6 active torsions:
REMARK  status: ('A' for Active; 'I' for Inactive)
REMARK    1  A    between atoms: C_2  and  O_3
REMARK    2  A    between atoms: O_3  and  C_5
REMARK    3  A    between atoms: N_4  and  C_6
REMARK    4  A    between atoms: C_12  and  C_16
REMARK    5  A    between atoms: N_13  and  C_17
REMARK    6  A    between atoms: N_18  and  C_20
REMARK                            x       y       z     vdW  Elec       q    Type
REMARK                         _______ _______ _______ _____ _____    ______ ____
ROOT
ATOM      1  C   UNL     1      11.962  12.810  43.366  0.00  0.00    +0.000 A 
ATOM      2  C   UNL     1      12.133  14.129  42.945  0.00  0.00    +0.000 A 
ATOM      3  C   UNL     1      13.047  11.938  43.467  0.00  0.00    +0.000 A 
ATOM      4  C   UNL     1      13.447  14.611  42.592  0.00  0.00    +0.000 A 
ATOM      5  C   UNL     1      14.387  12.308  43.102  0.00  0.00    +0.000 A 
ATOM      6  C   UNL     1      14.571  13.700  42.805  0.00  0.00    +0.000 A 
ATOM      7  C   UNL     1      13.870  16.001  42.957  0.00  0.00    +0.000 C 
ATOM      8  N   UNL     1      15.668  14.542  42.814  0.00  0.00    +0.000 N 
ATOM      9  C   UNL     1      15.234  15.832  42.327  0.00  0.00    +0.000 C 
ATOM     10  C   UNL     1      13.482  17.265  42.184  0.00  0.00    +0.000 C 
ATOM     11  C   UNL     1      13.773  16.185  44.501  0.00  0.00    +0.000 C 
ATOM     12  C   UNL     1      16.942  14.027  42.307  0.00  0.00    +0.000 C 
ATOM     13  N   UNL     1      15.934  17.114  42.461  0.00  0.00    +0.000 NA
ATOM     14  C   UNL     1      14.813  18.092  42.279  0.00  0.00    +0.000 C 
ATOM     15  C   UNL     1      16.772  17.308  43.670  0.00  0.00    +0.000 C 
ENDROOT
BRANCH   1  16
ATOM     16  O   UNL     1      10.717  12.371  43.768  0.00  0.00    +0.000 OA
BRANCH  16  18
ATOM     17  O   UNL     1       9.452  12.103  41.896  0.00  0.00    +0.000 OA
ATOM     18  C   UNL     1       9.610  12.539  43.021  0.00  0.00    +0.000 C 
ATOM     19  N   UNL     1       8.596  12.853  43.848  0.00  0.00    +0.000 N 
ATOM     20  C   UNL     1       7.183  12.607  43.539  0.00  0.00    +0.000 C 
ATOM     21  H   UNL     1       8.825  13.053  44.810  0.00  0.00    +0.000 HD
ENDBRANCH  16  18
ENDBRANCH   1  16
TORSDOF 2
ENDMDL
MODEL 13
REMARK VINA RESULT:    -5.306      1.920      2.944
REMARK INTER + INTRA:          -6.145
REMARK INTER:                  -5.898
REMARK INTRA:                  -0.247
REMARK UNBOUND:                -0.219
REMARK  Name = opt67.pdb
REMARK  6 active torsions:
REMARK  status: ('A' for Active; 'I' for Inactive)
REMARK    1  A    between atoms: C_2  and  O_3
REMARK    2  A    between atoms: O_3  and  C_5
REMARK    3  A    between atoms: N_4  and  C_6
REMARK    4  A    between atoms: C_12  and  C_16
REMARK    5  A    between atoms: N_13  and  C_17
REMARK    6  A    between atoms: N_18  and  C_20
REMARK                            x       y       z     vdW  Elec       q    Type
REMARK                         _______ _______ _______ _____ _____    ______ ____
ROOT
ATOM      1  C   UNL     1      14.037  14.392  44.836  0.00  0.00    +0.000 A 
ATOM      2  C   UNL     1      15.414  14.175  44.887  0.00  0.00    +0.000 A 
ATOM      3  C   UNL     1      13.514  15.632  44.465  0.00  0.00    +0.000 A 
ATOM      4  C   UNL     1      16.327  15.246  44.566  0.00  0.00    +0.000 A 
ATOM      5  C   UNL     1      14.337  16.771  44.165  0.00  0.00    +0.000 A 
ATOM      6  C   UNL     1      15.745  16.498  44.086  0.00  0.00    +0.000 A 
ATOM      7  C   UNL     1      17.584  14.967  43.800  0.00  0.00    +0.000 C 
ATOM      8  N   UNL     1      16.807  17.128  43.464  0.00  0.00    +0.000 N 
ATOM      9  C   UNL     1      18.012  16.417  43.829  0.00  0.00    +0.000 C 
ATOM     10  C   UNL     1      18.871  14.399  44.406  0.00  0.00    +0.000 C 
ATOM     11  C   UNL     1      17.225  14.318  42.430  0.00  0.00    +0.000 C 
ATOM     12  C   UNL     1      16.856  18.591  43.488  0.00  0.00    +0.000 C 
ATOM     13  N   UNL     1      19.322  16.495  43.175  0.00  0.00    +0.000 NA
ATOM     14  C   UNL     1      19.956  15.209  43.613  0.00  0.00    +0.000 C 
ATOM     15  C   UNL     1      19.339  16.760  41.715  0.00  0.00    +0.000 C 
ENDROOT
BRANCH   1  16
ATOM     16  O   UNL     1      13.165  13.350  45.076  0.00  0.00    +0.000 OA
BRANCH  16  18
ATOM     17  O   UNL     1      13.552  11.213  44.397  0.00  0.00    +0.000 OA
ATOM     18  C   UNL     1      13.036  12.303  44.240  0.00  0.00    +0.000 C 
ATOM     19  N   UNL     1      11.935  12.505  43.491  0.00  0.00    +0.000 N 
ATOM     20  C   UNL     1      11.164  11.426  42.864  0.00  0.00    +0.000 C 
ATOM     21  H   UNL     1      11.491  13.409  43.551  0.00  0.00    +0.000 HD
ENDBRANCH  16  18
ENDBRANCH   1  16
TORSDOF 2
ENDMDL
MODEL 14
REMARK VINA RESULT:    -5.263      2.901      7.903
REMARK INTER + INTRA:          -6.098
REMARK INTER:                  -5.877
REMARK INTRA:                  -0.221
REMARK UNBOUND:                -0.219
REMARK  Name = opt67.pdb
REMARK  6 active torsions:
REMARK  status: ('A' for Active; 'I' for Inactive)
REMARK    1  A    between atoms: C_2  and  O_3
REMARK    2  A    between atoms: O_3  and  C_5
REMARK    3  A    between atoms: N_4  and  C_6
REMARK    4  A    between atoms: C_12  and  C_16
REMARK    5  A    between atoms: N_13  and  C_17
REMARK    6  A    between atoms: N_18  and  C_20
REMARK                            x       y       z     vdW  Elec       q    Type
REMARK                         _______ _______ _______ _____ _____    ______ ____
ROOT
ATOM      1  C   UNL     1      11.825  14.268  44.423  0.00  0.00    +0.000 A 
ATOM      2  C   UNL     1      10.847  13.537  43.748  0.00  0.00    +0.000 A 
ATOM      3  C   UNL     1      11.786  15.663  44.459  0.00  0.00    +0.000 A 
ATOM      4  C   UNL     1       9.779  14.220  43.059  0.00  0.00    +0.000 A 
ATOM      5  C   UNL     1      10.789  16.438  43.773  0.00  0.00    +0.000 A 
ATOM      6  C   UNL     1       9.716  15.674  43.202  0.00  0.00    +0.000 A 
ATOM      7  C   UNL     1       8.387  13.667  43.078  0.00  0.00    +0.000 C 
ATOM      8  N   UNL     1       8.416  15.976  42.841  0.00  0.00    +0.000 N 
ATOM      9  C   UNL     1       7.847  14.795  42.229  0.00  0.00    +0.000 C 
ATOM     10  C   UNL     1       7.885  12.528  42.186  0.00  0.00    +0.000 C 
ATOM     11  C   UNL     1       7.899  13.538  44.553  0.00  0.00    +0.000 C 
ATOM     12  C   UNL     1       8.157  17.261  42.189  0.00  0.00    +0.000 C 
ATOM     13  N   UNL     1       6.427  14.515  41.989  0.00  0.00    +0.000 NA
ATOM     14  C   UNL     1       6.430  13.022  41.865  0.00  0.00    +0.000 C 
ATOM     15  C   UNL     1       5.450  15.082  42.953  0.00  0.00    +0.000 C 
ENDROOT
BRANCH   1  16
ATOM     16  O   UNL     1      12.806  13.613  45.138  0.00  0.00    +0.000 OA
BRANCH  16  18
ATOM     17  O   UNL     1      13.704  11.694  44.308  0.00  0.00    +0.000 OA
ATOM     18  C   UNL     1      13.772  12.885  44.547  0.00  0.00    +0.000 C 
ATOM     19  N   UNL     1      14.584  13.732  43.886  0.00  0.00    +0.000 N 
ATOM     20  C   UNL     1      15.402  13.346  42.732  0.00  0.00    +0.000 C 
ATOM     21  H   UNL     1      14.453  14.719  44.044  0.00  0.00    +0.000 HD
ENDBRANCH  16  18
ENDBRANCH   1  16
TORSDOF 2
ENDMDL
MODEL 15
REMARK VINA RESULT:    -5.244      2.833      6.549
REMARK INTER + INTRA:          -6.076
REMARK INTER:                  -5.847
REMARK INTRA:                  -0.229
REMARK UNBOUND:                -0.219
REMARK  Name = opt67.pdb
REMARK  6 active torsions:
REMARK  status: ('A' for Active; 'I' for Inactive)
REMARK    1  A    between atoms: C_2  and  O_3
REMARK    2  A    between atoms: O_3  and  C_5
REMARK    3  A    between atoms: N_4  and  C_6
REMARK    4  A    between atoms: C_12  and  C_16
REMARK    5  A    between atoms: N_13  and  C_17
REMARK    6  A    between atoms: N_18  and  C_20
REMARK                            x       y       z     vdW  Elec       q    Type
REMARK                         _______ _______ _______ _____ _____    ______ ____
ROOT
ATOM      1  C   UNL     1      16.467  15.889  44.975  0.00  0.00    +0.000 A 
ATOM      2  C   UNL     1      15.913  14.816  44.277  0.00  0.00    +0.000 A 
ATOM      3  C   UNL     1      15.734  17.054  45.209  0.00  0.00    +0.000 A 
ATOM      4  C   UNL     1      14.565  14.901  43.770  0.00  0.00    +0.000 A 
ATOM      5  C   UNL     1      14.400  17.253  44.713  0.00  0.00    +0.000 A 
ATOM      6  C   UNL     1      13.795  16.094  44.119  0.00  0.00    +0.000 A 
ATOM      7  C   UNL     1      13.660  13.708  43.812  0.00  0.00    +0.000 C 
ATOM      8  N   UNL     1      12.486  15.707  43.899  0.00  0.00    +0.000 N 
ATOM      9  C   UNL     1      12.516  14.458  43.171  0.00  0.00    +0.000 C 
ATOM     10  C   UNL     1      13.689  12.551  42.808  0.00  0.00    +0.000 C 
ATOM     11  C   UNL     1      13.508  13.223  45.286  0.00  0.00    +0.000 C 
ATOM     12  C   UNL     1      11.528  16.721  43.455  0.00  0.00    +0.000 C 
ATOM     13  N   UNL     1      11.415  13.504  42.998  0.00  0.00    +0.000 NA
ATOM     14  C   UNL     1      12.156  12.245  42.665  0.00  0.00    +0.000 C 
ATOM     15  C   UNL     1      10.425  13.401  44.099  0.00  0.00    +0.000 C 
ENDROOT
BRANCH   1  16
ATOM     16  O   UNL     1      17.731  15.780  45.518  0.00  0.00    +0.000 OA
BRANCH  16  18
ATOM     17  O   UNL     1      19.245  14.282  44.717  0.00  0.00    +0.000 OA
ATOM     18  C   UNL     1      18.804  15.414  44.793  0.00  0.00    +0.000 C 
ATOM     19  N   UNL     1      19.015  16.360  43.859  0.00  0.00    +0.000 N 
ATOM     20  C   UNL     1      19.707  16.114  42.589  0.00  0.00    +0.000 C 
ATOM     21  H   UNL     1      18.480  17.211  43.930  0.00  0.00    +0.000 HD
ENDBRANCH  16  18
ENDBRANCH   1  16
TORSDOF 2
ENDMDL
MODEL 16
REMARK VINA RESULT:    -5.226      2.026      2.806
REMARK INTER + INTRA:          -6.056
REMARK INTER:                  -5.806
REMARK INTRA:                  -0.250
REMARK UNBOUND:                -0.219
REMARK  Name = opt67.pdb
REMARK  6 active torsions:
REMARK  status: ('A' for Active; 'I' for Inactive)
REMARK    1  A    between atoms: C_2  and  O_3
REMARK    2  A    between atoms: O_3  and  C_5
REMARK    3  A    between atoms: N_4  and  C_6
REMARK    4  A    between atoms: C_12  and  C_16
REMARK    5  A    between atoms: N_13  and  C_17
REMARK    6  A    between atoms: N_18  and  C_20
REMARK                            x       y       z     vdW  Elec       q    Type
REMARK                         _______ _______ _______ _____ _____    ______ ____
ROOT
ATOM      1  C   UNL     1      12.679  12.725  43.335  0.00  0.00    +0.000 A 
ATOM      2  C   UNL     1      12.924  14.024  42.893  0.00  0.00    +0.000 A 
ATOM      3  C   UNL     1      13.544  12.091  44.228  0.00  0.00    +0.000 A 
ATOM      4  C   UNL     1      14.096  14.734  43.346  0.00  0.00    +0.000 A 
ATOM      5  C   UNL     1      14.757  12.695  44.708  0.00  0.00    +0.000 A 
ATOM      6  C   UNL     1      14.925  14.077  44.356  0.00  0.00    +0.000 A 
ATOM      7  C   UNL     1      14.026  16.199  43.651  0.00  0.00    +0.000 C 
ATOM      8  N   UNL     1      15.660  15.117  44.894  0.00  0.00    +0.000 N 
ATOM      9  C   UNL     1      15.487  16.266  44.033  0.00  0.00    +0.000 C 
ATOM     10  C   UNL     1      14.074  17.315  42.602  0.00  0.00    +0.000 C 
ATOM     11  C   UNL     1      12.951  16.451  44.750  0.00  0.00    +0.000 C 
ATOM     12  C   UNL     1      17.014  14.834  45.373  0.00  0.00    +0.000 C 
ATOM     13  N   UNL     1      15.789  17.666  44.348  0.00  0.00    +0.000 NA
ATOM     14  C   UNL     1      14.934  18.391  43.353  0.00  0.00    +0.000 C 
ATOM     15  C   UNL     1      15.639  18.092  45.762  0.00  0.00    +0.000 C 
ENDROOT
BRANCH   1  16
ATOM     16  O   UNL     1      11.524  12.073  42.955  0.00  0.00    +0.000 OA
BRANCH  16  18
ATOM     17  O   UNL     1       9.968  13.070  44.284  0.00  0.00    +0.000 OA
ATOM     18  C   UNL     1      10.295  12.548  43.235  0.00  0.00    +0.000 C 
ATOM     19  N   UNL     1       9.657  12.757  42.068  0.00  0.00    +0.000 N 
ATOM     20  C   UNL     1       8.562  13.718  41.896  0.00  0.00    +0.000 C 
ATOM     21  H   UNL     1      10.096  12.410  41.229  0.00  0.00    +0.000 HD
ENDBRANCH  16  18
ENDBRANCH   1  16
TORSDOF 2
ENDMDL
MODEL 17
REMARK VINA RESULT:    -5.033      1.918      3.702
REMARK INTER + INTRA:          -5.841
REMARK INTER:                  -5.584
REMARK INTRA:                  -0.257
REMARK UNBOUND:                -0.219
REMARK  Name = opt67.pdb
REMARK  6 active torsions:
REMARK  status: ('A' for Active; 'I' for Inactive)
REMARK    1  A    between atoms: C_2  and  O_3
REMARK    2  A    between atoms: O_3  and  C_5
REMARK    3  A    between atoms: N_4  and  C_6
REMARK    4  A    between atoms: C_12  and  C_16
REMARK    5  A    between atoms: N_13  and  C_17
REMARK    6  A    between atoms: N_18  and  C_20
REMARK                            x       y       z     vdW  Elec       q    Type
REMARK                         _______ _______ _______ _____ _____    ______ ____
ROOT
ATOM      1  C   UNL     1      15.354  14.096  44.149  0.00  0.00    +0.000 A 
ATOM      2  C   UNL     1      16.041  14.052  42.936  0.00  0.00    +0.000 A 
ATOM      3  C   UNL     1      15.993  14.488  45.327  0.00  0.00    +0.000 A 
ATOM      4  C   UNL     1      17.440  14.402  42.883  0.00  0.00    +0.000 A 
ATOM      5  C   UNL     1      17.391  14.818  45.388  0.00  0.00    +0.000 A 
ATOM      6  C   UNL     1      18.049  14.902  44.115  0.00  0.00    +0.000 A 
ATOM      7  C   UNL     1      17.987  15.172  41.720  0.00  0.00    +0.000 C 
ATOM      8  N   UNL     1      19.189  15.546  43.670  0.00  0.00    +0.000 N 
ATOM      9  C   UNL     1      19.388  15.176  42.286  0.00  0.00    +0.000 C 
ATOM     10  C   UNL     1      18.353  14.566  40.363  0.00  0.00    +0.000 C 
ATOM     11  C   UNL     1      17.226  16.526  41.590  0.00  0.00    +0.000 C 
ATOM     12  C   UNL     1      20.366  15.552  44.540  0.00  0.00    +0.000 C 
ATOM     13  N   UNL     1      20.250  15.843  41.304  0.00  0.00    +0.000 NA
ATOM     14  C   UNL     1      19.645  15.384  40.011  0.00  0.00    +0.000 C 
ATOM     15  C   UNL     1      20.437  17.308  41.447  0.00  0.00    +0.000 C 
ENDROOT
BRANCH   1  16
ATOM     16  O   UNL     1      14.001  13.828  44.187  0.00  0.00    +0.000 OA
BRANCH  16  18
ATOM     17  O   UNL     1      13.528  11.651  44.650  0.00  0.00    +0.000 OA
ATOM     18  C   UNL     1      13.493  12.612  43.906  0.00  0.00    +0.000 C 
ATOM     19  N   UNL     1      12.589  12.759  42.919  0.00  0.00    +0.000 N 
ATOM     20  C   UNL     1      11.474  11.835  42.689  0.00  0.00    +0.000 C 
ATOM     21  H   UNL     1      12.540  13.658  42.464  0.00  0.00    +0.000 HD
ENDBRANCH  16  18
ENDBRANCH   1  16
TORSDOF 2
ENDMDL
MODEL 18
REMARK VINA RESULT:    -4.912      2.615      7.197
REMARK INTER + INTRA:          -5.705
REMARK INTER:                  -5.481
REMARK INTRA:                  -0.224
REMARK UNBOUND:                -0.219
REMARK  Name = opt67.pdb
REMARK  6 active torsions:
REMARK  status: ('A' for Active; 'I' for Inactive)
REMARK    1  A    between atoms: C_2  and  O_3
REMARK    2  A    between atoms: O_3  and  C_5
REMARK    3  A    between atoms: N_4  and  C_6
REMARK    4  A    between atoms: C_12  and  C_16
REMARK    5  A    between atoms: N_13  and  C_17
REMARK    6  A    between atoms: N_18  and  C_20
REMARK                            x       y       z     vdW  Elec       q    Type
REMARK                         _______ _______ _______ _____ _____    ______ ____
ROOT
ATOM      1  C   UNL     1      13.183  14.060  42.926  0.00  0.00    +0.000 A 
ATOM      2  C   UNL     1      12.246  15.053  43.212  0.00  0.00    +0.000 A 
ATOM      3  C   UNL     1      12.797  12.729  42.759  0.00  0.00    +0.000 A 
ATOM      4  C   UNL     1      10.851  14.712  43.354  0.00  0.00    +0.000 A 
ATOM      5  C   UNL     1      11.441  12.281  42.918  0.00  0.00    +0.000 A 
ATOM      6  C   UNL     1      10.471  13.328  43.074  0.00  0.00    +0.000 A 
ATOM      7  C   UNL     1       9.789  15.626  42.825  0.00  0.00    +0.000 C 
ATOM      8  N   UNL     1       9.108  13.408  42.856  0.00  0.00    +0.000 N 
ATOM      9  C   UNL     1       8.672  14.718  43.286  0.00  0.00    +0.000 C 
ATOM     10  C   UNL     1       9.286  16.887  43.535  0.00  0.00    +0.000 C 
ATOM     11  C   UNL     1      10.000  15.839  41.296  0.00  0.00    +0.000 C 
ATOM     12  C   UNL     1       8.277  12.264  43.236  0.00  0.00    +0.000 C 
ATOM     13  N   UNL     1       7.408  15.385  42.960  0.00  0.00    +0.000 NA
ATOM     14  C   UNL     1       7.753  16.823  43.202  0.00  0.00    +0.000 C 
ATOM     15  C   UNL     1       6.799  15.080  41.641  0.00  0.00    +0.000 C 
ENDROOT
BRANCH   1  16
ATOM     16  O   UNL     1      14.506  14.397  42.724  0.00  0.00    +0.000 OA
BRANCH  16  18
ATOM     17  O   UNL     1      16.540  13.384  42.853  0.00  0.00    +0.000 OA
ATOM     18  C   UNL     1      15.518  13.791  43.373  0.00  0.00    +0.000 C 
ATOM     19  N   UNL     1      15.420  14.106  44.678  0.00  0.00    +0.000 N 
ATOM     20  C   UNL     1      16.556  14.103  45.607  0.00  0.00    +0.000 C 
ATOM     21  H   UNL     1      14.585  14.584  44.980  0.00  0.00    +0.000 HD
ENDBRANCH  16  18
ENDBRANCH   1  16
TORSDOF 2
ENDMDL
