MODEL 1
REMARK VINA RESULT:    -6.226      0.000      0.000
REMARK INTER + INTRA:         -11.727
REMARK INTER:                 -10.411
REMARK INTRA:                  -1.316
REMARK UNBOUND:                -1.316
REMARK  Name = opt76.pdb
REMARK  15 active torsions:
REMARK  status: ('A' for Active; 'I' for Inactive)
REMARK    1  A    between atoms: C_2  and  O_4
REMARK    2  A    between atoms: C_3  and  C_7
REMARK    3  A    between atoms: O_4  and  C_8
REMARK    4  A    between atoms: C_5  and  O_9
REMARK    5  A    between atoms: C_6  and  O_11
REMARK    6  A    between atoms: C_7  and  O_12
REMARK    7  A    between atoms: C_8  and  C_13
REMARK    8  A    between atoms: C_8  and  C_14
REMARK    9  A    between atoms: C_10  and  O_15
REMARK   10  A    between atoms: O_12  and  C_16
REMARK   11  A    between atoms: C_21  and  O_25
REMARK   12  A    between atoms: C_24  and  C_29
REMARK   13  A    between atoms: C_26  and  O_30
REMARK   14  A    between atoms: C_28  and  O_31
REMARK   15  A    between atoms: C_29  and  O_32
REMARK                            x       y       z     vdW  Elec       q    Type
REMARK                         _______ _______ _______ _____ _____    ______ ____
ROOT
ATOM      1  O   UNL     1      13.306  14.582  44.281  0.00  0.00    +0.000 OA
ATOM      2  C   UNL     1      14.714  14.504  43.938  0.00  0.00    +0.000 C 
ATOM      3  C   UNL     1      12.464  13.565  43.671  0.00  0.00    +0.000 C 
ATOM      4  C   UNL     1      15.264  13.146  44.435  0.00  0.00    +0.000 C 
ATOM      5  C   UNL     1      12.941  12.168  44.138  0.00  0.00    +0.000 C 
ATOM      6  C   UNL     1      14.443  11.989  43.823  0.00  0.00    +0.000 C 
ENDROOT
BRANCH   6   7
ATOM      7  O   UNL     1      14.920  10.752  44.356  0.00  0.00    +0.000 OA
ATOM      8  H   UNL     1      15.895  10.806  44.371  0.00  0.00    +0.000 HD
ENDBRANCH   6   7
BRANCH   4   9
ATOM      9  O   UNL     1      15.195  13.111  45.869  0.00  0.00    +0.000 OA
ATOM     10  H   UNL     1      15.981  13.587  46.212  0.00  0.00    +0.000 HD
ENDBRANCH   4   9
BRANCH   5  11
ATOM     11  O   UNL     1      12.169  11.136  43.505  0.00  0.00    +0.000 OA
ATOM     12  H   UNL     1      11.406  11.527  43.040  0.00  0.00    +0.000 HD
ENDBRANCH   5  11
BRANCH   2  13
ATOM     13  O   UNL     1      15.420  15.602  44.581  0.00  0.00    +0.000 OA
BRANCH  13  14
ATOM     14  C   UNL     1      15.565  16.850  43.841  0.00  0.00    +0.000 C 
BRANCH  14  15
ATOM     15  C   UNL     1      14.236  17.593  43.800  0.00  0.00    +0.000 A 
ATOM     16  C   UNL     1      13.689  18.082  44.989  0.00  0.00    +0.000 A 
ATOM     17  C   UNL     1      13.556  17.805  42.597  0.00  0.00    +0.000 A 
ATOM     18  C   UNL     1      12.476  18.770  44.978  0.00  0.00    +0.000 A 
ATOM     19  C   UNL     1      12.341  18.489  42.586  0.00  0.00    +0.000 A 
ATOM     20  C   UNL     1      11.801  18.971  43.777  0.00  0.00    +0.000 A 
ENDBRANCH  14  15
BRANCH  14  21
ATOM     21  C   UNL     1      16.050  16.590  42.473  0.00  0.00    +0.000 C 
ATOM     22  N   UNL     1      16.448  16.355  41.433  0.00  0.00    +0.000 NA
ENDBRANCH  14  21
ENDBRANCH  13  14
ENDBRANCH   2  13
BRANCH   3  23
ATOM     23  C   UNL     1      11.005  13.795  44.109  0.00  0.00    +0.000 C 
BRANCH  23  24
ATOM     24  O   UNL     1      10.115  12.872  43.438  0.00  0.00    +0.000 OA
BRANCH  24  25
ATOM     25  C   UNL     1       9.768  13.329  42.112  0.00  0.00    +0.000 C 
ATOM     26  O   UNL     1       8.660  12.563  41.563  0.00  0.00    +0.000 OA
ATOM     27  C   UNL     1       9.422  14.835  42.122  0.00  0.00    +0.000 C 
ATOM     28  C   UNL     1       7.379  12.720  42.236  0.00  0.00    +0.000 C 
ATOM     29  C   UNL     1       8.038  15.106  42.760  0.00  0.00    +0.000 C 
ATOM     30  C   UNL     1       6.946  14.205  42.131  0.00  0.00    +0.000 C 
BRANCH  30  31
ATOM     31  O   UNL     1       5.696  14.413  42.804  0.00  0.00    +0.000 OA
ATOM     32  H   UNL     1       5.491  15.365  42.817  0.00  0.00    +0.000 HD
ENDBRANCH  30  31
BRANCH  29  33
ATOM     33  O   UNL     1       7.700  16.487  42.577  0.00  0.00    +0.000 OA
ATOM     34  H   UNL     1       8.515  16.959  42.308  0.00  0.00    +0.000 HD
ENDBRANCH  29  33
BRANCH  27  35
ATOM     35  O   UNL     1       9.430  15.280  40.766  0.00  0.00    +0.000 OA
ATOM     36  H   UNL     1       8.695  15.914  40.686  0.00  0.00    +0.000 HD
ENDBRANCH  27  35
BRANCH  28  37
ATOM     37  C   UNL     1       6.358  11.752  41.591  0.00  0.00    +0.000 C 
BRANCH  37  38
ATOM     38  O   UNL     1       6.549  11.647  40.176  0.00  0.00    +0.000 OA
ATOM     39  H   UNL     1       6.024  10.893  39.849  0.00  0.00    +0.000 HD
ENDBRANCH  37  38
ENDBRANCH  28  37
ENDBRANCH  24  25
ENDBRANCH  23  24
ENDBRANCH   3  23
TORSDOF 15
ENDMDL
MODEL 2
REMARK VINA RESULT:    -6.200      2.338      3.657
REMARK INTER + INTRA:         -11.684
REMARK INTER:                 -10.320
REMARK INTRA:                  -1.364
REMARK UNBOUND:                -1.316
REMARK  Name = opt76.pdb
REMARK  15 active torsions:
REMARK  status: ('A' for Active; 'I' for Inactive)
REMARK    1  A    between atoms: C_2  and  O_4
REMARK    2  A    between atoms: C_3  and  C_7
REMARK    3  A    between atoms: O_4  and  C_8
REMARK    4  A    between atoms: C_5  and  O_9
REMARK    5  A    between atoms: C_6  and  O_11
REMARK    6  A    between atoms: C_7  and  O_12
REMARK    7  A    between atoms: C_8  and  C_13
REMARK    8  A    between atoms: C_8  and  C_14
REMARK    9  A    between atoms: C_10  and  O_15
REMARK   10  A    between atoms: O_12  and  C_16
REMARK   11  A    between atoms: C_21  and  O_25
REMARK   12  A    between atoms: C_24  and  C_29
REMARK   13  A    between atoms: C_26  and  O_30
REMARK   14  A    between atoms: C_28  and  O_31
REMARK   15  A    between atoms: C_29  and  O_32
REMARK                            x       y       z     vdW  Elec       q    Type
REMARK                         _______ _______ _______ _____ _____    ______ ____
ROOT
ATOM      1  O   UNL     1      13.443  14.513  42.957  0.00  0.00    +0.000 OA
ATOM      2  C   UNL     1      14.741  13.866  42.905  0.00  0.00    +0.000 C 
ATOM      3  C   UNL     1      12.313  13.658  42.632  0.00  0.00    +0.000 C 
ATOM      4  C   UNL     1      14.760  12.725  43.950  0.00  0.00    +0.000 C 
ATOM      5  C   UNL     1      12.250  12.494  43.651  0.00  0.00    +0.000 C 
ATOM      6  C   UNL     1      13.600  11.742  43.677  0.00  0.00    +0.000 C 
ENDROOT
BRANCH   6   7
ATOM      7  O   UNL     1      13.593  10.742  44.699  0.00  0.00    +0.000 OA
ATOM      8  H   UNL     1      12.662  10.622  44.971  0.00  0.00    +0.000 HD
ENDBRANCH   6   7
BRANCH   4   9
ATOM      9  O   UNL     1      14.644  13.292  45.264  0.00  0.00    +0.000 OA
ATOM     10  H   UNL     1      14.157  12.648  45.820  0.00  0.00    +0.000 HD
ENDBRANCH   4   9
BRANCH   5  11
ATOM     11  O   UNL     1      11.181  11.595  43.322  0.00  0.00    +0.000 OA
ATOM     12  H   UNL     1      11.255  10.780  43.851  0.00  0.00    +0.000 HD
ENDBRANCH   5  11
BRANCH   2  13
ATOM     13  O   UNL     1      15.772  14.847  43.208  0.00  0.00    +0.000 OA
BRANCH  13  14
ATOM     14  C   UNL     1      17.153  14.386  43.292  0.00  0.00    +0.000 C 
BRANCH  14  15
ATOM     15  C   UNL     1      17.981  15.359  44.121  0.00  0.00    +0.000 A 
ATOM     16  C   UNL     1      17.330  16.331  44.887  0.00  0.00    +0.000 A 
ATOM     17  C   UNL     1      19.377  15.297  44.140  0.00  0.00    +0.000 A 
ATOM     18  C   UNL     1      18.065  17.231  45.658  0.00  0.00    +0.000 A 
ATOM     19  C   UNL     1      20.112  16.199  44.908  0.00  0.00    +0.000 A 
ATOM     20  C   UNL     1      19.456  17.166  45.667  0.00  0.00    +0.000 A 
ENDBRANCH  14  15
BRANCH  14  21
ATOM     21  C   UNL     1      17.734  14.235  41.946  0.00  0.00    +0.000 C 
ATOM     22  N   UNL     1      18.224  14.121  40.925  0.00  0.00    +0.000 NA
ENDBRANCH  14  21
ENDBRANCH  13  14
ENDBRANCH   2  13
BRANCH   3  23
ATOM     23  C   UNL     1      11.018  14.490  42.707  0.00  0.00    +0.000 C 
BRANCH  23  24
ATOM     24  O   UNL     1       9.910  13.771  42.115  0.00  0.00    +0.000 OA
BRANCH  24  25
ATOM     25  C   UNL     1       8.684  13.972  42.852  0.00  0.00    +0.000 C 
ATOM     26  O   UNL     1       7.832  14.955  42.201  0.00  0.00    +0.000 OA
ATOM     27  C   UNL     1       7.923  12.639  43.028  0.00  0.00    +0.000 C 
ATOM     28  C   UNL     1       7.295  14.575  40.904  0.00  0.00    +0.000 C 
ATOM     29  C   UNL     1       7.252  12.178  41.711  0.00  0.00    +0.000 C 
ATOM     30  C   UNL     1       6.409  13.317  41.085  0.00  0.00    +0.000 C 
BRANCH  30  31
ATOM     31  O   UNL     1       5.876  12.890  39.822  0.00  0.00    +0.000 OA
ATOM     32  H   UNL     1       5.985  11.926  39.735  0.00  0.00    +0.000 HD
ENDBRANCH  30  31
BRANCH  29  33
ATOM     33  O   UNL     1       6.421  11.042  41.981  0.00  0.00    +0.000 OA
ATOM     34  H   UNL     1       5.962  10.806  41.149  0.00  0.00    +0.000 HD
ENDBRANCH  29  33
BRANCH  27  35
ATOM     35  O   UNL     1       6.932  12.847  44.034  0.00  0.00    +0.000 OA
ATOM     36  H   UNL     1       7.203  12.303  44.796  0.00  0.00    +0.000 HD
ENDBRANCH  27  35
BRANCH  28  37
ATOM     37  C   UNL     1       6.515  15.777  40.318  0.00  0.00    +0.000 C 
BRANCH  37  38
ATOM     38  O   UNL     1       6.258  15.611  38.919  0.00  0.00    +0.000 OA
ATOM     39  H   UNL     1       5.332  15.327  38.808  0.00  0.00    +0.000 HD
ENDBRANCH  37  38
ENDBRANCH  28  37
ENDBRANCH  24  25
ENDBRANCH  23  24
ENDBRANCH   3  23
TORSDOF 15
ENDMDL
MODEL 3
REMARK VINA RESULT:    -6.196      2.267      3.327
REMARK INTER + INTRA:         -11.678
REMARK INTER:                 -10.259
REMARK INTRA:                  -1.419
REMARK UNBOUND:                -1.316
REMARK  Name = opt76.pdb
REMARK  15 active torsions:
REMARK  status: ('A' for Active; 'I' for Inactive)
REMARK    1  A    between atoms: C_2  and  O_4
REMARK    2  A    between atoms: C_3  and  C_7
REMARK    3  A    between atoms: O_4  and  C_8
REMARK    4  A    between atoms: C_5  and  O_9
REMARK    5  A    between atoms: C_6  and  O_11
REMARK    6  A    between atoms: C_7  and  O_12
REMARK    7  A    between atoms: C_8  and  C_13
REMARK    8  A    between atoms: C_8  and  C_14
REMARK    9  A    between atoms: C_10  and  O_15
REMARK   10  A    between atoms: O_12  and  C_16
REMARK   11  A    between atoms: C_21  and  O_25
REMARK   12  A    between atoms: C_24  and  C_29
REMARK   13  A    between atoms: C_26  and  O_30
REMARK   14  A    between atoms: C_28  and  O_31
REMARK   15  A    between atoms: C_29  and  O_32
REMARK                            x       y       z     vdW  Elec       q    Type
REMARK                         _______ _______ _______ _____ _____    ______ ____
ROOT
ATOM      1  O   UNL     1      12.802  14.603  43.543  0.00  0.00    +0.000 OA
ATOM      2  C   UNL     1      14.041  13.847  43.557  0.00  0.00    +0.000 C 
ATOM      3  C   UNL     1      11.751  14.053  42.702  0.00  0.00    +0.000 C 
ATOM      4  C   UNL     1      13.744  12.436  44.120  0.00  0.00    +0.000 C 
ATOM      5  C   UNL     1      11.382  12.640  43.216  0.00  0.00    +0.000 C 
ATOM      6  C   UNL     1      12.645  11.752  43.276  0.00  0.00    +0.000 C 
ENDROOT
BRANCH   6   7
ATOM      7  O   UNL     1      12.336  10.485  43.861  0.00  0.00    +0.000 OA
ATOM      8  H   UNL     1      11.383  10.329  43.711  0.00  0.00    +0.000 HD
ENDBRANCH   6   7
BRANCH   4   9
ATOM      9  O   UNL     1      13.329  12.557  45.489  0.00  0.00    +0.000 OA
ATOM     10  H   UNL     1      12.573  13.182  45.512  0.00  0.00    +0.000 HD
ENDBRANCH   4   9
BRANCH   5  11
ATOM     11  O   UNL     1      10.388  12.041  42.370  0.00  0.00    +0.000 OA
ATOM     12  H   UNL     1      10.461  11.070  42.404  0.00  0.00    +0.000 HD
ENDBRANCH   5  11
BRANCH   2  13
ATOM     13  O   UNL     1      15.007  14.535  44.399  0.00  0.00    +0.000 OA
BRANCH  13  14
ATOM     14  C   UNL     1      16.423  14.268  44.176  0.00  0.00    +0.000 C 
BRANCH  14  15
ATOM     15  C   UNL     1      17.267  15.388  44.769  0.00  0.00    +0.000 A 
ATOM     16  C   UNL     1      16.644  16.396  45.509  0.00  0.00    +0.000 A 
ATOM     17  C   UNL     1      18.655  15.425  44.597  0.00  0.00    +0.000 A 
ATOM     18  C   UNL     1      17.395  17.430  46.067  0.00  0.00    +0.000 A 
ATOM     19  C   UNL     1      19.405  16.461  45.150  0.00  0.00    +0.000 A 
ATOM     20  C   UNL     1      18.775  17.464  45.886  0.00  0.00    +0.000 A 
ENDBRANCH  14  15
BRANCH  14  21
ATOM     21  C   UNL     1      16.705  14.119  42.737  0.00  0.00    +0.000 C 
ATOM     22  N   UNL     1      16.966  14.007  41.635  0.00  0.00    +0.000 NA
ENDBRANCH  14  21
ENDBRANCH  13  14
ENDBRANCH   2  13
BRANCH   3  23
ATOM     23  C   UNL     1      10.519  14.975  42.773  0.00  0.00    +0.000 C 
BRANCH  23  24
ATOM     24  O   UNL     1       9.428  14.323  43.464  0.00  0.00    +0.000 OA
BRANCH  24  25
ATOM     25  C   UNL     1       8.178  15.025  43.280  0.00  0.00    +0.000 C 
ATOM     26  O   UNL     1       7.517  14.612  42.052  0.00  0.00    +0.000 OA
ATOM     27  C   UNL     1       7.242  14.806  44.490  0.00  0.00    +0.000 C 
ATOM     28  C   UNL     1       7.050  13.235  42.010  0.00  0.00    +0.000 C 
ATOM     29  C   UNL     1       6.634  13.382  44.501  0.00  0.00    +0.000 C 
ATOM     30  C   UNL     1       5.999  13.035  43.130  0.00  0.00    +0.000 C 
BRANCH  30  31
ATOM     31  O   UNL     1       5.527  11.681  43.142  0.00  0.00    +0.000 OA
ATOM     32  H   UNL     1       4.851  11.580  43.836  0.00  0.00    +0.000 HD
ENDBRANCH  30  31
BRANCH  29  33
ATOM     33  O   UNL     1       5.645  13.303  45.535  0.00  0.00    +0.000 OA
ATOM     34  H   UNL     1       5.944  12.631  46.181  0.00  0.00    +0.000 HD
ENDBRANCH  29  33
BRANCH  27  35
ATOM     35  O   UNL     1       6.202  15.780  44.402  0.00  0.00    +0.000 OA
ATOM     36  H   UNL     1       5.572  15.567  45.114  0.00  0.00    +0.000 HD
ENDBRANCH  27  35
BRANCH  28  37
ATOM     37  C   UNL     1       6.482  12.948  40.599  0.00  0.00    +0.000 C 
BRANCH  37  38
ATOM     38  O   UNL     1       6.523  11.551  40.286  0.00  0.00    +0.000 OA
ATOM     39  H   UNL     1       7.341  11.371  39.786  0.00  0.00    +0.000 HD
ENDBRANCH  37  38
ENDBRANCH  28  37
ENDBRANCH  24  25
ENDBRANCH  23  24
ENDBRANCH   3  23
TORSDOF 15
ENDMDL
MODEL 4
REMARK VINA RESULT:    -6.125      2.276      3.471
REMARK INTER + INTRA:         -11.559
REMARK INTER:                 -10.036
REMARK INTRA:                  -1.523
REMARK UNBOUND:                -1.316
REMARK  Name = opt76.pdb
REMARK  15 active torsions:
REMARK  status: ('A' for Active; 'I' for Inactive)
REMARK    1  A    between atoms: C_2  and  O_4
REMARK    2  A    between atoms: C_3  and  C_7
REMARK    3  A    between atoms: O_4  and  C_8
REMARK    4  A    between atoms: C_5  and  O_9
REMARK    5  A    between atoms: C_6  and  O_11
REMARK    6  A    between atoms: C_7  and  O_12
REMARK    7  A    between atoms: C_8  and  C_13
REMARK    8  A    between atoms: C_8  and  C_14
REMARK    9  A    between atoms: C_10  and  O_15
REMARK   10  A    between atoms: O_12  and  C_16
REMARK   11  A    between atoms: C_21  and  O_25
REMARK   12  A    between atoms: C_24  and  C_29
REMARK   13  A    between atoms: C_26  and  O_30
REMARK   14  A    between atoms: C_28  and  O_31
REMARK   15  A    between atoms: C_29  and  O_32
REMARK                            x       y       z     vdW  Elec       q    Type
REMARK                         _______ _______ _______ _____ _____    ______ ____
ROOT
ATOM      1  O   UNL     1      13.548  14.972  43.413  0.00  0.00    +0.000 OA
ATOM      2  C   UNL     1      14.799  14.236  43.373  0.00  0.00    +0.000 C 
ATOM      3  C   UNL     1      12.389  14.248  42.918  0.00  0.00    +0.000 C 
ATOM      4  C   UNL     1      14.661  12.989  44.279  0.00  0.00    +0.000 C 
ATOM      5  C   UNL     1      12.170  12.988  43.791  0.00  0.00    +0.000 C 
ATOM      6  C   UNL     1      13.459  12.134  43.819  0.00  0.00    +0.000 C 
ENDROOT
BRANCH   6   7
ATOM      7  O   UNL     1      13.306  11.032  44.716  0.00  0.00    +0.000 OA
ATOM      8  H   UNL     1      14.034  11.092  45.366  0.00  0.00    +0.000 HD
ENDBRANCH   6   7
BRANCH   4   9
ATOM      9  O   UNL     1      14.487  13.416  45.638  0.00  0.00    +0.000 OA
ATOM     10  H   UNL     1      15.245  13.997  45.863  0.00  0.00    +0.000 HD
ENDBRANCH   4   9
BRANCH   5  11
ATOM     11  O   UNL     1      11.068  12.215  43.291  0.00  0.00    +0.000 OA
ATOM     12  H   UNL     1      10.320  12.257  43.914  0.00  0.00    +0.000 HD
ENDBRANCH   5  11
BRANCH   2  13
ATOM     13  O   UNL     1      15.870  15.095  43.854  0.00  0.00    +0.000 OA
BRANCH  13  14
ATOM     14  C   UNL     1      17.236  14.588  43.789  0.00  0.00    +0.000 C 
BRANCH  14  15
ATOM     15  C   UNL     1      18.191  15.572  44.451  0.00  0.00    +0.000 A 
ATOM     16  C   UNL     1      19.551  15.257  44.532  0.00  0.00    +0.000 A 
ATOM     17  C   UNL     1      17.741  16.789  44.971  0.00  0.00    +0.000 A 
ATOM     18  C   UNL     1      20.448  16.142  45.128  0.00  0.00    +0.000 A 
ATOM     19  C   UNL     1      18.636  17.673  45.571  0.00  0.00    +0.000 A 
ATOM     20  C   UNL     1      19.990  17.350  45.649  0.00  0.00    +0.000 A 
ENDBRANCH  14  15
BRANCH  14  21
ATOM     21  C   UNL     1      17.636  14.346  42.391  0.00  0.00    +0.000 C 
ATOM     22  N   UNL     1      17.921  14.195  41.300  0.00  0.00    +0.000 NA
ENDBRANCH  14  21
ENDBRANCH  13  14
ENDBRANCH   2  13
BRANCH   3  23
ATOM     23  C   UNL     1      11.153  15.164  43.002  0.00  0.00    +0.000 C 
BRANCH  23  24
ATOM     24  O   UNL     1      10.138  14.746  42.060  0.00  0.00    +0.000 OA
BRANCH  24  25
ATOM     25  C   UNL     1       8.865  15.375  42.327  0.00  0.00    +0.000 C 
ATOM     26  O   UNL     1       7.817  14.824  41.482  0.00  0.00    +0.000 OA
ATOM     27  C   UNL     1       8.482  15.231  43.817  0.00  0.00    +0.000 C 
ATOM     28  C   UNL     1       7.471  13.431  41.719  0.00  0.00    +0.000 C 
ATOM     29  C   UNL     1       8.030  13.790  44.161  0.00  0.00    +0.000 C 
ATOM     30  C   UNL     1       6.946  13.292  43.171  0.00  0.00    +0.000 C 
BRANCH  30  31
ATOM     31  O   UNL     1       6.616  11.926  43.458  0.00  0.00    +0.000 OA
ATOM     32  H   UNL     1       5.983  11.600  42.794  0.00  0.00    +0.000 HD
ENDBRANCH  30  31
BRANCH  29  33
ATOM     33  O   UNL     1       7.520  13.766  45.500  0.00  0.00    +0.000 OA
ATOM     34  H   UNL     1       6.962  12.966  45.591  0.00  0.00    +0.000 HD
ENDBRANCH  29  33
BRANCH  27  35
ATOM     35  O   UNL     1       7.418  16.149  44.071  0.00  0.00    +0.000 OA
ATOM     36  H   UNL     1       7.269  16.626  43.235  0.00  0.00    +0.000 HD
ENDBRANCH  27  35
BRANCH  28  37
ATOM     37  C   UNL     1       6.430  12.992  40.662  0.00  0.00    +0.000 C 
BRANCH  37  38
ATOM     38  O   UNL     1       6.409  11.569  40.499  0.00  0.00    +0.000 OA
ATOM     39  H   UNL     1       7.140  11.316  39.904  0.00  0.00    +0.000 HD
ENDBRANCH  37  38
ENDBRANCH  28  37
ENDBRANCH  24  25
ENDBRANCH  23  24
ENDBRANCH   3  23
TORSDOF 15
ENDMDL
MODEL 5
REMARK VINA RESULT:    -6.122      2.176      3.461
REMARK INTER + INTRA:         -11.553
REMARK INTER:                 -10.235
REMARK INTRA:                  -1.318
REMARK UNBOUND:                -1.316
REMARK  Name = opt76.pdb
REMARK  15 active torsions:
REMARK  status: ('A' for Active; 'I' for Inactive)
REMARK    1  A    between atoms: C_2  and  O_4
REMARK    2  A    between atoms: C_3  and  C_7
REMARK    3  A    between atoms: O_4  and  C_8
REMARK    4  A    between atoms: C_5  and  O_9
REMARK    5  A    between atoms: C_6  and  O_11
REMARK    6  A    between atoms: C_7  and  O_12
REMARK    7  A    between atoms: C_8  and  C_13
REMARK    8  A    between atoms: C_8  and  C_14
REMARK    9  A    between atoms: C_10  and  O_15
REMARK   10  A    between atoms: O_12  and  C_16
REMARK   11  A    between atoms: C_21  and  O_25
REMARK   12  A    between atoms: C_24  and  C_29
REMARK   13  A    between atoms: C_26  and  O_30
REMARK   14  A    between atoms: C_28  and  O_31
REMARK   15  A    between atoms: C_29  and  O_32
REMARK                            x       y       z     vdW  Elec       q    Type
REMARK                         _______ _______ _______ _____ _____    ______ ____
ROOT
ATOM      1  O   UNL     1      13.321  14.520  43.880  0.00  0.00    +0.000 OA
ATOM      2  C   UNL     1      14.706  14.392  43.462  0.00  0.00    +0.000 C 
ATOM      3  C   UNL     1      12.446  13.438  43.459  0.00  0.00    +0.000 C 
ATOM      4  C   UNL     1      15.289  13.106  44.095  0.00  0.00    +0.000 C 
ATOM      5  C   UNL     1      12.955  12.110  44.071  0.00  0.00    +0.000 C 
ATOM      6  C   UNL     1      14.435  11.885  43.688  0.00  0.00    +0.000 C 
ENDROOT
BRANCH   6   7
ATOM      7  O   UNL     1      14.948  10.723  44.345  0.00  0.00    +0.000 OA
ATOM      8  H   UNL     1      14.390  10.573  45.132  0.00  0.00    +0.000 HD
ENDBRANCH   6   7
BRANCH   4   9
ATOM      9  O   UNL     1      15.310  13.255  45.523  0.00  0.00    +0.000 OA
ATOM     10  H   UNL     1      14.384  13.184  45.839  0.00  0.00    +0.000 HD
ENDBRANCH   4   9
BRANCH   5  11
ATOM     11  O   UNL     1      12.148  11.010  43.624  0.00  0.00    +0.000 OA
ATOM     12  H   UNL     1      11.388  11.339  43.110  0.00  0.00    +0.000 HD
ENDBRANCH   5  11
BRANCH   2  13
ATOM     13  O   UNL     1      15.446  15.560  43.914  0.00  0.00    +0.000 OA
BRANCH  13  14
ATOM     14  C   UNL     1      16.876  15.616  43.630  0.00  0.00    +0.000 C 
BRANCH  14  15
ATOM     15  C   UNL     1      17.583  16.478  44.667  0.00  0.00    +0.000 A 
ATOM     16  C   UNL     1      18.942  16.762  44.509  0.00  0.00    +0.000 A 
ATOM     17  C   UNL     1      16.900  17.000  45.770  0.00  0.00    +0.000 A 
ATOM     18  C   UNL     1      19.612  17.553  45.441  0.00  0.00    +0.000 A 
ATOM     19  C   UNL     1      17.570  17.787  46.705  0.00  0.00    +0.000 A 
ATOM     20  C   UNL     1      18.927  18.064  46.541  0.00  0.00    +0.000 A 
ENDBRANCH  14  15
BRANCH  14  21
ATOM     21  C   UNL     1      17.116  16.144  42.274  0.00  0.00    +0.000 C 
ATOM     22  N   UNL     1      17.303  16.593  41.245  0.00  0.00    +0.000 NA
ENDBRANCH  14  21
ENDBRANCH  13  14
ENDBRANCH   2  13
BRANCH   3  23
ATOM     23  C   UNL     1      11.016  13.729  43.954  0.00  0.00    +0.000 C 
BRANCH  23  24
ATOM     24  O   UNL     1      10.035  13.201  43.031  0.00  0.00    +0.000 OA
BRANCH  24  25
ATOM     25  C   UNL     1       8.906  12.620  43.721  0.00  0.00    +0.000 C 
ATOM     26  O   UNL     1       8.085  13.645  44.346  0.00  0.00    +0.000 OA
ATOM     27  C   UNL     1       8.053  11.767  42.755  0.00  0.00    +0.000 C 
ATOM     28  C   UNL     1       7.396  14.552  43.440  0.00  0.00    +0.000 C 
ATOM     29  C   UNL     1       7.222  12.644  41.787  0.00  0.00    +0.000 C 
ATOM     30  C   UNL     1       6.425  13.727  42.558  0.00  0.00    +0.000 C 
BRANCH  30  31
ATOM     31  O   UNL     1       5.741  14.579  41.629  0.00  0.00    +0.000 OA
ATOM     32  H   UNL     1       5.462  14.057  40.856  0.00  0.00    +0.000 HD
ENDBRANCH  30  31
BRANCH  29  33
ATOM     33  O   UNL     1       6.325  11.806  41.048  0.00  0.00    +0.000 OA
ATOM     34  H   UNL     1       6.748  10.928  40.956  0.00  0.00    +0.000 HD
ENDBRANCH  29  33
BRANCH  27  35
ATOM     35  O   UNL     1       7.183  10.966  43.556  0.00  0.00    +0.000 OA
ATOM     36  H   UNL     1       6.766  10.330  42.946  0.00  0.00    +0.000 HD
ENDBRANCH  27  35
BRANCH  28  37
ATOM     37  C   UNL     1       6.671  15.633  44.278  0.00  0.00    +0.000 C 
BRANCH  37  38
ATOM     38  O   UNL     1       6.032  16.607  43.445  0.00  0.00    +0.000 OA
ATOM     39  H   UNL     1       6.717  17.194  43.075  0.00  0.00    +0.000 HD
ENDBRANCH  37  38
ENDBRANCH  28  37
ENDBRANCH  24  25
ENDBRANCH  23  24
ENDBRANCH   3  23
TORSDOF 15
ENDMDL
MODEL 6
REMARK VINA RESULT:    -6.101      2.335      3.059
REMARK INTER + INTRA:         -11.518
REMARK INTER:                 -10.693
REMARK INTRA:                  -0.825
REMARK UNBOUND:                -1.316
REMARK  Name = opt76.pdb
REMARK  15 active torsions:
REMARK  status: ('A' for Active; 'I' for Inactive)
REMARK    1  A    between atoms: C_2  and  O_4
REMARK    2  A    between atoms: C_3  and  C_7
REMARK    3  A    between atoms: O_4  and  C_8
REMARK    4  A    between atoms: C_5  and  O_9
REMARK    5  A    between atoms: C_6  and  O_11
REMARK    6  A    between atoms: C_7  and  O_12
REMARK    7  A    between atoms: C_8  and  C_13
REMARK    8  A    between atoms: C_8  and  C_14
REMARK    9  A    between atoms: C_10  and  O_15
REMARK   10  A    between atoms: O_12  and  C_16
REMARK   11  A    between atoms: C_21  and  O_25
REMARK   12  A    between atoms: C_24  and  C_29
REMARK   13  A    between atoms: C_26  and  O_30
REMARK   14  A    between atoms: C_28  and  O_31
REMARK   15  A    between atoms: C_29  and  O_32
REMARK                            x       y       z     vdW  Elec       q    Type
REMARK                         _______ _______ _______ _____ _____    ______ ____
ROOT
ATOM      1  O   UNL     1      13.268  14.382  43.291  0.00  0.00    +0.000 OA
ATOM      2  C   UNL     1      14.629  13.885  43.394  0.00  0.00    +0.000 C 
ATOM      3  C   UNL     1      12.314  13.454  42.704  0.00  0.00    +0.000 C 
ATOM      4  C   UNL     1      14.625  12.643  44.317  0.00  0.00    +0.000 C 
ATOM      5  C   UNL     1      12.239  12.184  43.586  0.00  0.00    +0.000 C 
ATOM      6  C   UNL     1      13.650  11.579  43.765  0.00  0.00    +0.000 C 
ENDROOT
BRANCH   6   7
ATOM      7  O   UNL     1      13.607  10.477  44.673  0.00  0.00    +0.000 OA
ATOM      8  H   UNL     1      13.106  10.774  45.457  0.00  0.00    +0.000 HD
ENDBRANCH   6   7
BRANCH   4   9
ATOM      9  O   UNL     1      14.240  13.045  45.640  0.00  0.00    +0.000 OA
ATOM     10  H   UNL     1      13.478  12.487  45.906  0.00  0.00    +0.000 HD
ENDBRANCH   4   9
BRANCH   5  11
ATOM     11  O   UNL     1      11.351  11.219  43.002  0.00  0.00    +0.000 OA
ATOM     12  H   UNL     1      11.432  11.235  42.031  0.00  0.00    +0.000 HD
ENDBRANCH   5  11
BRANCH   2  13
ATOM     13  O   UNL     1      15.473  14.929  43.954  0.00  0.00    +0.000 OA
BRANCH  13  14
ATOM     14  C   UNL     1      16.892  14.642  44.129  0.00  0.00    +0.000 C 
BRANCH  14  15
ATOM     15  C   UNL     1      17.573  15.793  44.857  0.00  0.00    +0.000 A 
ATOM     16  C   UNL     1      16.800  16.676  45.617  0.00  0.00    +0.000 A 
ATOM     17  C   UNL     1      18.957  15.982  44.791  0.00  0.00    +0.000 A 
ATOM     18  C   UNL     1      17.399  17.735  46.297  0.00  0.00    +0.000 A 
ATOM     19  C   UNL     1      19.556  17.043  45.467  0.00  0.00    +0.000 A 
ATOM     20  C   UNL     1      18.778  17.920  46.221  0.00  0.00    +0.000 A 
ENDBRANCH  14  15
BRANCH  14  21
ATOM     21  C   UNL     1      17.539  14.405  42.826  0.00  0.00    +0.000 C 
ATOM     22  N   UNL     1      18.079  14.228  41.840  0.00  0.00    +0.000 NA
ENDBRANCH  14  21
ENDBRANCH  13  14
ENDBRANCH   2  13
BRANCH   3  23
ATOM     23  C   UNL     1      10.932  14.131  42.640  0.00  0.00    +0.000 C 
BRANCH  23  24
ATOM     24  O   UNL     1       9.893  13.219  43.067  0.00  0.00    +0.000 OA
BRANCH  24  25
ATOM     25  C   UNL     1       8.781  13.201  42.145  0.00  0.00    +0.000 C 
ATOM     26  O   UNL     1       7.993  11.988  42.293  0.00  0.00    +0.000 OA
ATOM     27  C   UNL     1       7.887  14.446  42.337  0.00  0.00    +0.000 C 
ATOM     28  C   UNL     1       7.285  11.836  43.555  0.00  0.00    +0.000 C 
ATOM     29  C   UNL     1       7.035  14.353  43.626  0.00  0.00    +0.000 C 
ATOM     30  C   UNL     1       6.276  13.003  43.699  0.00  0.00    +0.000 C 
BRANCH  30  31
ATOM     31  O   UNL     1       5.570  12.909  44.944  0.00  0.00    +0.000 OA
ATOM     32  H   UNL     1       5.878  13.611  45.544  0.00  0.00    +0.000 HD
ENDBRANCH  30  31
BRANCH  29  33
ATOM     33  O   UNL     1       6.104  15.442  43.653  0.00  0.00    +0.000 OA
ATOM     34  H   UNL     1       5.279  15.138  43.223  0.00  0.00    +0.000 HD
ENDBRANCH  29  33
BRANCH  27  35
ATOM     35  O   UNL     1       7.035  14.536  41.195  0.00  0.00    +0.000 OA
ATOM     36  H   UNL     1       7.583  14.284  40.430  0.00  0.00    +0.000 HD
ENDBRANCH  27  35
BRANCH  28  37
ATOM     37  C   UNL     1       6.601  10.448  43.576  0.00  0.00    +0.000 C 
BRANCH  37  38
ATOM     38  O   UNL     1       7.560   9.386  43.633  0.00  0.00    +0.000 OA
ATOM     39  H   UNL     1       7.104   8.574  43.925  0.00  0.00    +0.000 HD
ENDBRANCH  37  38
ENDBRANCH  28  37
ENDBRANCH  24  25
ENDBRANCH  23  24
ENDBRANCH   3  23
TORSDOF 15
ENDMDL
MODEL 7
REMARK VINA RESULT:    -6.051      1.764      3.154
REMARK INTER + INTRA:         -11.435
REMARK INTER:                 -10.296
REMARK INTRA:                  -1.139
REMARK UNBOUND:                -1.316
REMARK  Name = opt76.pdb
REMARK  15 active torsions:
REMARK  status: ('A' for Active; 'I' for Inactive)
REMARK    1  A    between atoms: C_2  and  O_4
REMARK    2  A    between atoms: C_3  and  C_7
REMARK    3  A    between atoms: O_4  and  C_8
REMARK    4  A    between atoms: C_5  and  O_9
REMARK    5  A    between atoms: C_6  and  O_11
REMARK    6  A    between atoms: C_7  and  O_12
REMARK    7  A    between atoms: C_8  and  C_13
REMARK    8  A    between atoms: C_8  and  C_14
REMARK    9  A    between atoms: C_10  and  O_15
REMARK   10  A    between atoms: O_12  and  C_16
REMARK   11  A    between atoms: C_21  and  O_25
REMARK   12  A    between atoms: C_24  and  C_29
REMARK   13  A    between atoms: C_26  and  O_30
REMARK   14  A    between atoms: C_28  and  O_31
REMARK   15  A    between atoms: C_29  and  O_32
REMARK                            x       y       z     vdW  Elec       q    Type
REMARK                         _______ _______ _______ _____ _____    ______ ____
ROOT
ATOM      1  O   UNL     1      13.400  14.621  44.064  0.00  0.00    +0.000 OA
ATOM      2  C   UNL     1      14.800  14.497  43.703  0.00  0.00    +0.000 C 
ATOM      3  C   UNL     1      12.535  13.568  43.556  0.00  0.00    +0.000 C 
ATOM      4  C   UNL     1      15.344  13.178  44.303  0.00  0.00    +0.000 C 
ATOM      5  C   UNL     1      13.004  12.209  44.131  0.00  0.00    +0.000 C 
ATOM      6  C   UNL     1      14.499  11.985  43.804  0.00  0.00    +0.000 C 
ENDROOT
BRANCH   6   7
ATOM      7  O   UNL     1      14.971  10.790  44.431  0.00  0.00    +0.000 OA
ATOM      8  H   UNL     1      14.511  10.719  45.290  0.00  0.00    +0.000 HD
ENDBRANCH   6   7
BRANCH   4   9
ATOM      9  O   UNL     1      15.302  13.264  45.735  0.00  0.00    +0.000 OA
ATOM     10  H   UNL     1      14.996  12.395  46.073  0.00  0.00    +0.000 HD
ENDBRANCH   4   9
BRANCH   5  11
ATOM     11  O   UNL     1      12.209  11.137  43.600  0.00  0.00    +0.000 OA
ATOM     12  H   UNL     1      12.697  10.296  43.663  0.00  0.00    +0.000 HD
ENDBRANCH   5  11
BRANCH   2  13
ATOM     13  O   UNL     1      15.530  15.635  44.239  0.00  0.00    +0.000 OA
BRANCH  13  14
ATOM     14  C   UNL     1      16.397  16.381  43.333  0.00  0.00    +0.000 C 
BRANCH  14  15
ATOM     15  C   UNL     1      17.815  15.831  43.394  0.00  0.00    +0.000 A 
ATOM     16  C   UNL     1      18.481  15.790  44.622  0.00  0.00    +0.000 A 
ATOM     17  C   UNL     1      18.464  15.357  42.249  0.00  0.00    +0.000 A 
ATOM     18  C   UNL     1      19.779  15.286  44.705  0.00  0.00    +0.000 A 
ATOM     19  C   UNL     1      19.762  14.857  42.331  0.00  0.00    +0.000 A 
ATOM     20  C   UNL     1      20.420  14.822  43.560  0.00  0.00    +0.000 A 
ENDBRANCH  14  15
BRANCH  14  21
ATOM     21  C   UNL     1      16.388  17.817  43.670  0.00  0.00    +0.000 C 
ATOM     22  N   UNL     1      16.427  18.925  43.927  0.00  0.00    +0.000 NA
ENDBRANCH  14  21
ENDBRANCH  13  14
ENDBRANCH   2  13
BRANCH   3  23
ATOM     23  C   UNL     1      11.087  13.852  44.000  0.00  0.00    +0.000 C 
BRANCH  23  24
ATOM     24  O   UNL     1      10.179  12.868  43.451  0.00  0.00    +0.000 OA
BRANCH  24  25
ATOM     25  C   UNL     1       9.712  13.242  42.136  0.00  0.00    +0.000 C 
ATOM     26  O   UNL     1       8.561  12.448  41.739  0.00  0.00    +0.000 OA
ATOM     27  C   UNL     1       9.368  14.747  42.082  0.00  0.00    +0.000 C 
ATOM     28  C   UNL     1       7.346  12.653  42.512  0.00  0.00    +0.000 C 
ATOM     29  C   UNL     1       8.046  15.065  42.823  0.00  0.00    +0.000 C 
ATOM     30  C   UNL     1       6.903  14.130  42.353  0.00  0.00    +0.000 C 
BRANCH  30  31
ATOM     31  O   UNL     1       5.718  14.386  43.121  0.00  0.00    +0.000 OA
ATOM     32  H   UNL     1       5.957  14.873  43.930  0.00  0.00    +0.000 HD
ENDBRANCH  30  31
BRANCH  29  33
ATOM     33  O   UNL     1       7.691  16.433  42.584  0.00  0.00    +0.000 OA
ATOM     34  H   UNL     1       8.275  16.771  41.875  0.00  0.00    +0.000 HD
ENDBRANCH  29  33
BRANCH  27  35
ATOM     35  O   UNL     1       9.253  15.106  40.705  0.00  0.00    +0.000 OA
ATOM     36  H   UNL     1      10.062  14.778  40.273  0.00  0.00    +0.000 HD
ENDBRANCH  27  35
BRANCH  28  37
ATOM     37  C   UNL     1       6.272  11.651  42.025  0.00  0.00    +0.000 C 
BRANCH  37  38
ATOM     38  O   UNL     1       6.312  11.482  40.603  0.00  0.00    +0.000 OA
ATOM     39  H   UNL     1       6.205  10.533  40.402  0.00  0.00    +0.000 HD
ENDBRANCH  37  38
ENDBRANCH  28  37
ENDBRANCH  24  25
ENDBRANCH  23  24
ENDBRANCH   3  23
TORSDOF 15
ENDMDL
MODEL 8
REMARK VINA RESULT:    -5.924      2.170      3.735
REMARK INTER + INTRA:         -11.222
REMARK INTER:                  -9.792
REMARK INTRA:                  -1.429
REMARK UNBOUND:                -1.316
REMARK  Name = opt76.pdb
REMARK  15 active torsions:
REMARK  status: ('A' for Active; 'I' for Inactive)
REMARK    1  A    between atoms: C_2  and  O_4
REMARK    2  A    between atoms: C_3  and  C_7
REMARK    3  A    between atoms: O_4  and  C_8
REMARK    4  A    between atoms: C_5  and  O_9
REMARK    5  A    between atoms: C_6  and  O_11
REMARK    6  A    between atoms: C_7  and  O_12
REMARK    7  A    between atoms: C_8  and  C_13
REMARK    8  A    between atoms: C_8  and  C_14
REMARK    9  A    between atoms: C_10  and  O_15
REMARK   10  A    between atoms: O_12  and  C_16
REMARK   11  A    between atoms: C_21  and  O_25
REMARK   12  A    between atoms: C_24  and  C_29
REMARK   13  A    between atoms: C_26  and  O_30
REMARK   14  A    between atoms: C_28  and  O_31
REMARK   15  A    between atoms: C_29  and  O_32
REMARK                            x       y       z     vdW  Elec       q    Type
REMARK                         _______ _______ _______ _____ _____    ______ ____
ROOT
ATOM      1  O   UNL     1      12.814  14.601  43.498  0.00  0.00    +0.000 OA
ATOM      2  C   UNL     1      14.069  13.873  43.544  0.00  0.00    +0.000 C 
ATOM      3  C   UNL     1      11.797  14.026  42.633  0.00  0.00    +0.000 C 
ATOM      4  C   UNL     1      13.791  12.457  44.103  0.00  0.00    +0.000 C 
ATOM      5  C   UNL     1      11.447  12.605  43.141  0.00  0.00    +0.000 C 
ATOM      6  C   UNL     1      12.729  11.747  43.234  0.00  0.00    +0.000 C 
ENDROOT
BRANCH   6   7
ATOM      7  O   UNL     1      12.435  10.474  43.813  0.00  0.00    +0.000 OA
ATOM      8  H   UNL     1      11.563  10.200  43.468  0.00  0.00    +0.000 HD
ENDBRANCH   6   7
BRANCH   4   9
ATOM      9  O   UNL     1      13.340  12.570  45.461  0.00  0.00    +0.000 OA
ATOM     10  H   UNL     1      13.500  13.495  45.747  0.00  0.00    +0.000 HD
ENDBRANCH   4   9
BRANCH   5  11
ATOM     11  O   UNL     1      10.489  11.983  42.272  0.00  0.00    +0.000 OA
ATOM     12  H   UNL     1      10.231  11.113  42.627  0.00  0.00    +0.000 HD
ENDBRANCH   5  11
BRANCH   2  13
ATOM     13  O   UNL     1      14.998  14.585  44.408  0.00  0.00    +0.000 OA
BRANCH  13  14
ATOM     14  C   UNL     1      15.736  15.709  43.843  0.00  0.00    +0.000 C 
BRANCH  14  15
ATOM     15  C   UNL     1      17.213  15.358  43.721  0.00  0.00    +0.000 A 
ATOM     16  C   UNL     1      17.750  15.083  42.460  0.00  0.00    +0.000 A 
ATOM     17  C   UNL     1      18.047  15.314  44.842  0.00  0.00    +0.000 A 
ATOM     18  C   UNL     1      19.100  14.764  42.321  0.00  0.00    +0.000 A 
ATOM     19  C   UNL     1      19.396  14.991  44.705  0.00  0.00    +0.000 A 
ATOM     20  C   UNL     1      19.922  14.716  43.444  0.00  0.00    +0.000 A 
ENDBRANCH  14  15
BRANCH  14  21
ATOM     21  C   UNL     1      15.562  16.916  44.671  0.00  0.00    +0.000 C 
ATOM     22  N   UNL     1      15.391  17.828  45.331  0.00  0.00    +0.000 NA
ENDBRANCH  14  21
ENDBRANCH  13  14
ENDBRANCH   2  13
BRANCH   3  23
ATOM     23  C   UNL     1      10.543  14.919  42.672  0.00  0.00    +0.000 C 
BRANCH  23  24
ATOM     24  O   UNL     1       9.468  14.265  43.386  0.00  0.00    +0.000 OA
BRANCH  24  25
ATOM     25  C   UNL     1       8.218  14.977  43.248  0.00  0.00    +0.000 C 
ATOM     26  O   UNL     1       7.521  14.591  42.032  0.00  0.00    +0.000 OA
ATOM     27  C   UNL     1       7.314  14.744  44.480  0.00  0.00    +0.000 C 
ATOM     28  C   UNL     1       7.043  13.218  41.978  0.00  0.00    +0.000 C 
ATOM     29  C   UNL     1       6.696  13.324  44.482  0.00  0.00    +0.000 C 
ATOM     30  C   UNL     1       6.021  13.005  43.123  0.00  0.00    +0.000 C 
BRANCH  30  31
ATOM     31  O   UNL     1       5.541  11.653  43.125  0.00  0.00    +0.000 OA
ATOM     32  H   UNL     1       6.060  11.127  43.758  0.00  0.00    +0.000 HD
ENDBRANCH  30  31
BRANCH  29  33
ATOM     33  O   UNL     1       5.734  13.233  45.541  0.00  0.00    +0.000 OA
ATOM     34  H   UNL     1       5.505  14.145  45.812  0.00  0.00    +0.000 HD
ENDBRANCH  29  33
BRANCH  27  35
ATOM     35  O   UNL     1       6.278  15.726  44.436  0.00  0.00    +0.000 OA
ATOM     36  H   UNL     1       5.611  15.386  43.814  0.00  0.00    +0.000 HD
ENDBRANCH  27  35
BRANCH  28  37
ATOM     37  C   UNL     1       6.436  12.959  40.578  0.00  0.00    +0.000 C 
BRANCH  37  38
ATOM     38  O   UNL     1       6.530  11.579  40.208  0.00  0.00    +0.000 OA
ATOM     39  H   UNL     1       6.600  11.524  39.236  0.00  0.00    +0.000 HD
ENDBRANCH  37  38
ENDBRANCH  28  37
ENDBRANCH  24  25
ENDBRANCH  23  24
ENDBRANCH   3  23
TORSDOF 15
ENDMDL
MODEL 9
REMARK VINA RESULT:    -5.919      2.318      5.186
REMARK INTER + INTRA:         -11.215
REMARK INTER:                  -9.160
REMARK INTRA:                  -2.055
REMARK UNBOUND:                -1.316
REMARK  Name = opt76.pdb
REMARK  15 active torsions:
REMARK  status: ('A' for Active; 'I' for Inactive)
REMARK    1  A    between atoms: C_2  and  O_4
REMARK    2  A    between atoms: C_3  and  C_7
REMARK    3  A    between atoms: O_4  and  C_8
REMARK    4  A    between atoms: C_5  and  O_9
REMARK    5  A    between atoms: C_6  and  O_11
REMARK    6  A    between atoms: C_7  and  O_12
REMARK    7  A    between atoms: C_8  and  C_13
REMARK    8  A    between atoms: C_8  and  C_14
REMARK    9  A    between atoms: C_10  and  O_15
REMARK   10  A    between atoms: O_12  and  C_16
REMARK   11  A    between atoms: C_21  and  O_25
REMARK   12  A    between atoms: C_24  and  C_29
REMARK   13  A    between atoms: C_26  and  O_30
REMARK   14  A    between atoms: C_28  and  O_31
REMARK   15  A    between atoms: C_29  and  O_32
REMARK                            x       y       z     vdW  Elec       q    Type
REMARK                         _______ _______ _______ _____ _____    ______ ____
ROOT
ATOM      1  O   UNL     1      12.806  14.624  43.703  0.00  0.00    +0.000 OA
ATOM      2  C   UNL     1      12.582  13.514  44.610  0.00  0.00    +0.000 C 
ATOM      3  C   UNL     1      13.744  15.629  44.175  0.00  0.00    +0.000 C 
ATOM      4  C   UNL     1      13.925  12.773  44.815  0.00  0.00    +0.000 C 
ATOM      5  C   UNL     1      15.128  14.967  44.387  0.00  0.00    +0.000 C 
ATOM      6  C   UNL     1      14.994  13.757  45.340  0.00  0.00    +0.000 C 
ENDROOT
BRANCH   6   7
ATOM      7  O   UNL     1      16.242  13.069  45.448  0.00  0.00    +0.000 OA
ATOM      8  H   UNL     1      16.480  12.770  44.549  0.00  0.00    +0.000 HD
ENDBRANCH   6   7
BRANCH   4   9
ATOM      9  O   UNL     1      14.337  12.198  43.566  0.00  0.00    +0.000 OA
ATOM     10  H   UNL     1      13.599  12.315  42.931  0.00  0.00    +0.000 HD
ENDBRANCH   4   9
BRANCH   5  11
ATOM     11  O   UNL     1      16.065  15.918  44.914  0.00  0.00    +0.000 OA
ATOM     12  H   UNL     1      16.965  15.543  44.902  0.00  0.00    +0.000 HD
ENDBRANCH   5  11
BRANCH   2  13
ATOM     13  O   UNL     1      11.594  12.618  44.028  0.00  0.00    +0.000 OA
BRANCH  13  14
ATOM     14  C   UNL     1      10.800  13.110  42.908  0.00  0.00    +0.000 C 
BRANCH  14  15
ATOM     15  C   UNL     1       9.325  13.139  43.284  0.00  0.00    +0.000 A 
ATOM     16  C   UNL     1       8.383  12.604  42.401  0.00  0.00    +0.000 A 
ATOM     17  C   UNL     1       8.892  13.681  44.498  0.00  0.00    +0.000 A 
ATOM     18  C   UNL     1       7.026  12.614  42.724  0.00  0.00    +0.000 A 
ATOM     19  C   UNL     1       7.536  13.696  44.819  0.00  0.00    +0.000 A 
ATOM     20  C   UNL     1       6.603  13.162  43.932  0.00  0.00    +0.000 A 
ENDBRANCH  14  15
BRANCH  14  21
ATOM     21  C   UNL     1      11.008  12.270  41.714  0.00  0.00    +0.000 C 
ATOM     22  N   UNL     1      11.163  11.657  40.767  0.00  0.00    +0.000 NA
ENDBRANCH  14  21
ENDBRANCH  13  14
ENDBRANCH   2  13
BRANCH   3  23
ATOM     23  C   UNL     1      13.855  16.747  43.121  0.00  0.00    +0.000 C 
BRANCH  23  24
ATOM     24  O   UNL     1      12.886  16.553  42.064  0.00  0.00    +0.000 OA
BRANCH  24  25
ATOM     25  C   UNL     1      12.080  17.734  41.850  0.00  0.00    +0.000 C 
ATOM     26  O   UNL     1      11.433  17.703  40.548  0.00  0.00    +0.000 OA
ATOM     27  C   UNL     1      11.025  17.889  42.968  0.00  0.00    +0.000 C 
ATOM     28  C   UNL     1      10.429  16.667  40.358  0.00  0.00    +0.000 C 
ATOM     29  C   UNL     1       9.869  16.870  42.817  0.00  0.00    +0.000 C 
ATOM     30  C   UNL     1       9.287  16.892  41.381  0.00  0.00    +0.000 C 
BRANCH  30  31
ATOM     31  O   UNL     1       8.283  15.876  41.247  0.00  0.00    +0.000 OA
ATOM     32  H   UNL     1       7.401  16.281  41.324  0.00  0.00    +0.000 HD
ENDBRANCH  30  31
BRANCH  29  33
ATOM     33  O   UNL     1       8.843  17.181  43.768  0.00  0.00    +0.000 OA
ATOM     34  H   UNL     1       8.704  16.388  44.325  0.00  0.00    +0.000 HD
ENDBRANCH  29  33
BRANCH  27  35
ATOM     35  O   UNL     1      10.515  19.220  42.886  0.00  0.00    +0.000 OA
ATOM     36  H   UNL     1      10.004  19.364  43.704  0.00  0.00    +0.000 HD
ENDBRANCH  27  35
BRANCH  28  37
ATOM     37  C   UNL     1       9.937  16.715  38.892  0.00  0.00    +0.000 C 
BRANCH  37  38
ATOM     38  O   UNL     1       8.620  17.267  38.794  0.00  0.00    +0.000 OA
ATOM     39  H   UNL     1       8.045  16.808  39.434  0.00  0.00    +0.000 HD
ENDBRANCH  37  38
ENDBRANCH  28  37
ENDBRANCH  24  25
ENDBRANCH  23  24
ENDBRANCH   3  23
TORSDOF 15
ENDMDL
MODEL 10
REMARK VINA RESULT:    -5.779      1.907      3.046
REMARK INTER + INTRA:         -10.981
REMARK INTER:                  -9.803
REMARK INTRA:                  -1.178
REMARK UNBOUND:                -1.316
REMARK  Name = opt76.pdb
REMARK  15 active torsions:
REMARK  status: ('A' for Active; 'I' for Inactive)
REMARK    1  A    between atoms: C_2  and  O_4
REMARK    2  A    between atoms: C_3  and  C_7
REMARK    3  A    between atoms: O_4  and  C_8
REMARK    4  A    between atoms: C_5  and  O_9
REMARK    5  A    between atoms: C_6  and  O_11
REMARK    6  A    between atoms: C_7  and  O_12
REMARK    7  A    between atoms: C_8  and  C_13
REMARK    8  A    between atoms: C_8  and  C_14
REMARK    9  A    between atoms: C_10  and  O_15
REMARK   10  A    between atoms: O_12  and  C_16
REMARK   11  A    between atoms: C_21  and  O_25
REMARK   12  A    between atoms: C_24  and  C_29
REMARK   13  A    between atoms: C_26  and  O_30
REMARK   14  A    between atoms: C_28  and  O_31
REMARK   15  A    between atoms: C_29  and  O_32
REMARK                            x       y       z     vdW  Elec       q    Type
REMARK                         _______ _______ _______ _____ _____    ______ ____
ROOT
ATOM      1  O   UNL     1      12.453  14.063  42.730  0.00  0.00    +0.000 OA
ATOM      2  C   UNL     1      13.869  13.919  43.018  0.00  0.00    +0.000 C 
ATOM      3  C   UNL     1      11.821  12.898  42.133  0.00  0.00    +0.000 C 
ATOM      4  C   UNL     1      14.043  12.773  44.043  0.00  0.00    +0.000 C 
ATOM      5  C   UNL     1      11.938  11.704  43.113  0.00  0.00    +0.000 C 
ATOM      6  C   UNL     1      13.418  11.472  43.491  0.00  0.00    +0.000 C 
ENDROOT
BRANCH   6   7
ATOM      7  O   UNL     1      13.524  10.451  44.485  0.00  0.00    +0.000 OA
ATOM      8  H   UNL     1      14.459  10.165  44.500  0.00  0.00    +0.000 HD
ENDBRANCH   6   7
BRANCH   4   9
ATOM      9  O   UNL     1      13.416  13.151  45.278  0.00  0.00    +0.000 OA
ATOM     10  H   UNL     1      13.225  12.327  45.774  0.00  0.00    +0.000 HD
ENDBRANCH   4   9
BRANCH   5  11
ATOM     11  O   UNL     1      11.378  10.518  42.529  0.00  0.00    +0.000 OA
ATOM     12  H   UNL     1      11.652  10.443  41.597  0.00  0.00    +0.000 HD
ENDBRANCH   5  11
BRANCH   2  13
ATOM     13  O   UNL     1      14.370  15.169  43.567  0.00  0.00    +0.000 OA
BRANCH  13  14
ATOM     14  C   UNL     1      15.790  15.255  43.890  0.00  0.00    +0.000 C 
BRANCH  14  15
ATOM     15  C   UNL     1      16.030  16.361  44.908  0.00  0.00    +0.000 A 
ATOM     16  C   UNL     1      17.122  16.268  45.776  0.00  0.00    +0.000 A 
ATOM     17  C   UNL     1      15.187  17.474  44.989  0.00  0.00    +0.000 A 
ATOM     18  C   UNL     1      17.367  17.270  46.714  0.00  0.00    +0.000 A 
ATOM     19  C   UNL     1      15.429  18.474  45.929  0.00  0.00    +0.000 A 
ATOM     20  C   UNL     1      16.519  18.372  46.792  0.00  0.00    +0.000 A 
ENDBRANCH  14  15
BRANCH  14  21
ATOM     21  C   UNL     1      16.587  15.495  42.674  0.00  0.00    +0.000 C 
ATOM     22  N   UNL     1      17.170  15.707  41.719  0.00  0.00    +0.000 NA
ENDBRANCH  14  21
ENDBRANCH  13  14
ENDBRANCH   2  13
BRANCH   3  23
ATOM     23  C   UNL     1      10.338  13.214  41.867  0.00  0.00    +0.000 C 
BRANCH  23  24
ATOM     24  O   UNL     1       9.673  13.628  43.084  0.00  0.00    +0.000 OA
BRANCH  24  25
ATOM     25  C   UNL     1       8.512  12.816  43.366  0.00  0.00    +0.000 C 
ATOM     26  O   UNL     1       7.652  13.449  44.353  0.00  0.00    +0.000 OA
ATOM     27  C   UNL     1       7.717  12.526  42.072  0.00  0.00    +0.000 C 
ATOM     28  C   UNL     1       7.009  14.687  43.939  0.00  0.00    +0.000 C 
ATOM     29  C   UNL     1       6.935  13.769  41.583  0.00  0.00    +0.000 C 
ATOM     30  C   UNL     1       6.092  14.386  42.727  0.00  0.00    +0.000 C 
BRANCH  30  31
ATOM     31  O   UNL     1       5.454  15.586  42.268  0.00  0.00    +0.000 OA
ATOM     32  H   UNL     1       4.679  15.353  41.725  0.00  0.00    +0.000 HD
ENDBRANCH  30  31
BRANCH  29  33
ATOM     33  O   UNL     1       6.084  13.389  40.494  0.00  0.00    +0.000 OA
ATOM     34  H   UNL     1       5.950  14.180  39.933  0.00  0.00    +0.000 HD
ENDBRANCH  29  33
BRANCH  27  35
ATOM     35  O   UNL     1       6.810  11.463  42.363  0.00  0.00    +0.000 OA
ATOM     36  H   UNL     1       5.981  11.887  42.650  0.00  0.00    +0.000 HD
ENDBRANCH  27  35
BRANCH  28  37
ATOM     37  C   UNL     1       6.234  15.270  45.146  0.00  0.00    +0.000 C 
BRANCH  37  38
ATOM     38  O   UNL     1       5.963  16.666  44.976  0.00  0.00    +0.000 OA
ATOM     39  H   UNL     1       5.209  16.761  44.364  0.00  0.00    +0.000 HD
ENDBRANCH  37  38
ENDBRANCH  28  37
ENDBRANCH  24  25
ENDBRANCH  23  24
ENDBRANCH   3  23
TORSDOF 15
ENDMDL
MODEL 11
REMARK VINA RESULT:    -5.738      2.610      6.329
REMARK INTER + INTRA:         -10.911
REMARK INTER:                  -8.811
REMARK INTRA:                  -2.099
REMARK UNBOUND:                -1.316
REMARK  Name = opt76.pdb
REMARK  15 active torsions:
REMARK  status: ('A' for Active; 'I' for Inactive)
REMARK    1  A    between atoms: C_2  and  O_4
REMARK    2  A    between atoms: C_3  and  C_7
REMARK    3  A    between atoms: O_4  and  C_8
REMARK    4  A    between atoms: C_5  and  O_9
REMARK    5  A    between atoms: C_6  and  O_11
REMARK    6  A    between atoms: C_7  and  O_12
REMARK    7  A    between atoms: C_8  and  C_13
REMARK    8  A    between atoms: C_8  and  C_14
REMARK    9  A    between atoms: C_10  and  O_15
REMARK   10  A    between atoms: O_12  and  C_16
REMARK   11  A    between atoms: C_21  and  O_25
REMARK   12  A    between atoms: C_24  and  C_29
REMARK   13  A    between atoms: C_26  and  O_30
REMARK   14  A    between atoms: C_28  and  O_31
REMARK   15  A    between atoms: C_29  and  O_32
REMARK                            x       y       z     vdW  Elec       q    Type
REMARK                         _______ _______ _______ _____ _____    ______ ____
ROOT
ATOM      1  O   UNL     1       9.299  14.433  42.297  0.00  0.00    +0.000 OA
ATOM      2  C   UNL     1       9.400  13.055  42.742  0.00  0.00    +0.000 C 
ATOM      3  C   UNL     1       8.172  14.720  41.424  0.00  0.00    +0.000 C 
ATOM      4  C   UNL     1       8.133  12.713  43.563  0.00  0.00    +0.000 C 
ATOM      5  C   UNL     1       6.857  14.420  42.184  0.00  0.00    +0.000 C 
ATOM      6  C   UNL     1       6.870  12.966  42.711  0.00  0.00    +0.000 C 
ENDROOT
BRANCH   6   7
ATOM      7  O   UNL     1       5.714  12.717  43.514  0.00  0.00    +0.000 OA
ATOM      8  H   UNL     1       5.834  11.836  43.918  0.00  0.00    +0.000 HD
ENDBRANCH   6   7
BRANCH   4   9
ATOM      9  O   UNL     1       8.113  13.521  44.749  0.00  0.00    +0.000 OA
ATOM     10  H   UNL     1       8.690  14.297  44.586  0.00  0.00    +0.000 HD
ENDBRANCH   4   9
BRANCH   5  11
ATOM     11  O   UNL     1       5.723  14.633  41.330  0.00  0.00    +0.000 OA
ATOM     12  H   UNL     1       5.051  15.167  41.793  0.00  0.00    +0.000 HD
ENDBRANCH   5  11
BRANCH   2  13
ATOM     13  O   UNL     1      10.591  12.909  43.565  0.00  0.00    +0.000 OA
BRANCH  13  14
ATOM     14  C   UNL     1      11.628  11.988  43.113  0.00  0.00    +0.000 C 
BRANCH  14  15
ATOM     15  C   UNL     1      13.006  12.560  43.418  0.00  0.00    +0.000 A 
ATOM     16  C   UNL     1      13.375  12.781  44.748  0.00  0.00    +0.000 A 
ATOM     17  C   UNL     1      13.914  12.860  42.398  0.00  0.00    +0.000 A 
ATOM     18  C   UNL     1      14.633  13.299  45.055  0.00  0.00    +0.000 A 
ATOM     19  C   UNL     1      15.170  13.381  42.704  0.00  0.00    +0.000 A 
ATOM     20  C   UNL     1      15.529  13.601  44.033  0.00  0.00    +0.000 A 
ENDBRANCH  14  15
BRANCH  14  21
ATOM     21  C   UNL     1      11.492  11.720  41.670  0.00  0.00    +0.000 C 
ATOM     22  N   UNL     1      11.418  11.481  40.559  0.00  0.00    +0.000 NA
ENDBRANCH  14  21
ENDBRANCH  13  14
ENDBRANCH   2  13
BRANCH   3  23
ATOM     23  C   UNL     1       8.216  16.206  41.021  0.00  0.00    +0.000 C 
BRANCH  23  24
ATOM     24  O   UNL     1       9.530  16.567  40.534  0.00  0.00    +0.000 OA
BRANCH  24  25
ATOM     25  C   UNL     1      10.044  17.744  41.197  0.00  0.00    +0.000 C 
ATOM     26  O   UNL     1      10.647  17.407  42.477  0.00  0.00    +0.000 OA
ATOM     27  C   UNL     1      11.067  18.476  40.301  0.00  0.00    +0.000 C 
ATOM     28  C   UNL     1      11.852  16.594  42.421  0.00  0.00    +0.000 C 
ATOM     29  C   UNL     1      12.418  17.723  40.229  0.00  0.00    +0.000 C 
ATOM     30  C   UNL     1      12.942  17.377  41.646  0.00  0.00    +0.000 C 
BRANCH  30  31
ATOM     31  O   UNL     1      14.144  16.600  41.543  0.00  0.00    +0.000 OA
ATOM     32  H   UNL     1      14.503  16.443  42.435  0.00  0.00    +0.000 HD
ENDBRANCH  30  31
BRANCH  29  33
ATOM     33  O   UNL     1      13.373  18.537  39.537  0.00  0.00    +0.000 OA
ATOM     34  H   UNL     1      14.176  18.591  40.094  0.00  0.00    +0.000 HD
ENDBRANCH  29  33
BRANCH  27  35
ATOM     35  O   UNL     1      11.264  19.776  40.858  0.00  0.00    +0.000 OA
ATOM     36  H   UNL     1      10.918  20.407  40.200  0.00  0.00    +0.000 HD
ENDBRANCH  27  35
BRANCH  28  37
ATOM     37  C   UNL     1      12.282  16.243  43.866  0.00  0.00    +0.000 C 
BRANCH  37  38
ATOM     38  O   UNL     1      11.270  15.499  44.553  0.00  0.00    +0.000 OA
ATOM     39  H   UNL     1      10.397  15.827  44.266  0.00  0.00    +0.000 HD
ENDBRANCH  37  38
ENDBRANCH  28  37
ENDBRANCH  24  25
ENDBRANCH  23  24
ENDBRANCH   3  23
TORSDOF 15
ENDMDL
MODEL 12
REMARK VINA RESULT:    -5.723      3.169      5.807
REMARK INTER + INTRA:         -10.886
REMARK INTER:                  -8.701
REMARK INTRA:                  -2.185
REMARK UNBOUND:                -1.316
REMARK  Name = opt76.pdb
REMARK  15 active torsions:
REMARK  status: ('A' for Active; 'I' for Inactive)
REMARK    1  A    between atoms: C_2  and  O_4
REMARK    2  A    between atoms: C_3  and  C_7
REMARK    3  A    between atoms: O_4  and  C_8
REMARK    4  A    between atoms: C_5  and  O_9
REMARK    5  A    between atoms: C_6  and  O_11
REMARK    6  A    between atoms: C_7  and  O_12
REMARK    7  A    between atoms: C_8  and  C_13
REMARK    8  A    between atoms: C_8  and  C_14
REMARK    9  A    between atoms: C_10  and  O_15
REMARK   10  A    between atoms: O_12  and  C_16
REMARK   11  A    between atoms: C_21  and  O_25
REMARK   12  A    between atoms: C_24  and  C_29
REMARK   13  A    between atoms: C_26  and  O_30
REMARK   14  A    between atoms: C_28  and  O_31
REMARK   15  A    between atoms: C_29  and  O_32
REMARK                            x       y       z     vdW  Elec       q    Type
REMARK                         _______ _______ _______ _____ _____    ______ ____
ROOT
ATOM      1  O   UNL     1      14.376  17.250  44.365  0.00  0.00    +0.000 OA
ATOM      2  C   UNL     1      15.454  18.119  43.928  0.00  0.00    +0.000 C 
ATOM      3  C   UNL     1      13.048  17.638  43.918  0.00  0.00    +0.000 C 
ATOM      4  C   UNL     1      15.504  18.092  42.381  0.00  0.00    +0.000 C 
ATOM      5  C   UNL     1      13.011  17.617  42.370  0.00  0.00    +0.000 C 
ATOM      6  C   UNL     1      14.135  18.513  41.802  0.00  0.00    +0.000 C 
ENDROOT
BRANCH   6   7
ATOM      7  O   UNL     1      14.184  18.407  40.377  0.00  0.00    +0.000 OA
ATOM      8  H   UNL     1      13.651  17.626  40.132  0.00  0.00    +0.000 HD
ENDBRANCH   6   7
BRANCH   4   9
ATOM      9  O   UNL     1      15.852  16.769  41.948  0.00  0.00    +0.000 OA
ATOM     10  H   UNL     1      15.221  16.516  41.240  0.00  0.00    +0.000 HD
ENDBRANCH   4   9
BRANCH   5  11
ATOM     11  O   UNL     1      11.731  18.055  41.892  0.00  0.00    +0.000 OA
ATOM     12  H   UNL     1      11.227  17.298  41.542  0.00  0.00    +0.000 HD
ENDBRANCH   5  11
BRANCH   2  13
ATOM     13  O   UNL     1      16.708  17.636  44.484  0.00  0.00    +0.000 OA
BRANCH  13  14
ATOM     14  C   UNL     1      16.679  17.019  45.805  0.00  0.00    +0.000 C 
BRANCH  14  15
ATOM     15  C   UNL     1      17.691  17.694  46.721  0.00  0.00    +0.000 A 
ATOM     16  C   UNL     1      17.330  17.990  48.038  0.00  0.00    +0.000 A 
ATOM     17  C   UNL     1      18.977  18.015  46.277  0.00  0.00    +0.000 A 
ATOM     18  C   UNL     1      18.240  18.604  48.899  0.00  0.00    +0.000 A 
ATOM     19  C   UNL     1      19.885  18.631  47.135  0.00  0.00    +0.000 A 
ATOM     20  C   UNL     1      19.517  18.926  48.446  0.00  0.00    +0.000 A 
ENDBRANCH  14  15
BRANCH  14  21
ATOM     21  C   UNL     1      16.955  15.574  45.711  0.00  0.00    +0.000 C 
ATOM     22  N   UNL     1      17.141  14.451  45.672  0.00  0.00    +0.000 NA
ENDBRANCH  14  21
ENDBRANCH  13  14
ENDBRANCH   2  13
BRANCH   3  23
ATOM     23  C   UNL     1      12.019  16.639  44.480  0.00  0.00    +0.000 C 
BRANCH  23  24
ATOM     24  O   UNL     1      11.904  15.481  43.620  0.00  0.00    +0.000 OA
BRANCH  24  25
ATOM     25  C   UNL     1      12.316  14.269  44.291  0.00  0.00    +0.000 C 
ATOM     26  O   UNL     1      11.735  13.094  43.662  0.00  0.00    +0.000 OA
ATOM     27  C   UNL     1      13.856  14.154  44.321  0.00  0.00    +0.000 C 
ATOM     28  C   UNL     1      12.186  12.806  42.309  0.00  0.00    +0.000 C 
ATOM     29  C   UNL     1      14.435  13.780  42.935  0.00  0.00    +0.000 C 
ATOM     30  C   UNL     1      13.713  12.544  42.342  0.00  0.00    +0.000 C 
BRANCH  30  31
ATOM     31  O   UNL     1      14.207  12.279  41.021  0.00  0.00    +0.000 OA
ATOM     32  H   UNL     1      14.249  11.317  40.878  0.00  0.00    +0.000 HD
ENDBRANCH  30  31
BRANCH  29  33
ATOM     33  O   UNL     1      15.837  13.513  43.068  0.00  0.00    +0.000 OA
ATOM     34  H   UNL     1      16.006  13.275  44.003  0.00  0.00    +0.000 HD
ENDBRANCH  29  33
BRANCH  27  35
ATOM     35  O   UNL     1      14.186  13.144  45.276  0.00  0.00    +0.000 OA
ATOM     36  H   UNL     1      14.461  12.365  44.759  0.00  0.00    +0.000 HD
ENDBRANCH  27  35
BRANCH  28  37
ATOM     37  C   UNL     1      11.383  11.599  41.765  0.00  0.00    +0.000 C 
BRANCH  37  38
ATOM     38  O   UNL     1      11.520  11.468  40.346  0.00  0.00    +0.000 OA
ATOM     39  H   UNL     1      10.790  11.954  39.920  0.00  0.00    +0.000 HD
ENDBRANCH  37  38
ENDBRANCH  28  37
ENDBRANCH  24  25
ENDBRANCH  23  24
ENDBRANCH   3  23
TORSDOF 15
ENDMDL
MODEL 13
REMARK VINA RESULT:    -5.686      2.068      3.528
REMARK INTER + INTRA:         -10.824
REMARK INTER:                  -9.546
REMARK INTRA:                  -1.277
REMARK UNBOUND:                -1.316
REMARK  Name = opt76.pdb
REMARK  15 active torsions:
REMARK  status: ('A' for Active; 'I' for Inactive)
REMARK    1  A    between atoms: C_2  and  O_4
REMARK    2  A    between atoms: C_3  and  C_7
REMARK    3  A    between atoms: O_4  and  C_8
REMARK    4  A    between atoms: C_5  and  O_9
REMARK    5  A    between atoms: C_6  and  O_11
REMARK    6  A    between atoms: C_7  and  O_12
REMARK    7  A    between atoms: C_8  and  C_13
REMARK    8  A    between atoms: C_8  and  C_14
REMARK    9  A    between atoms: C_10  and  O_15
REMARK   10  A    between atoms: O_12  and  C_16
REMARK   11  A    between atoms: C_21  and  O_25
REMARK   12  A    between atoms: C_24  and  C_29
REMARK   13  A    between atoms: C_26  and  O_30
REMARK   14  A    between atoms: C_28  and  O_31
REMARK   15  A    between atoms: C_29  and  O_32
REMARK                            x       y       z     vdW  Elec       q    Type
REMARK                         _______ _______ _______ _____ _____    ______ ____
ROOT
ATOM      1  O   UNL     1      12.363  14.168  43.160  0.00  0.00    +0.000 OA
ATOM      2  C   UNL     1      13.775  13.962  43.425  0.00  0.00    +0.000 C 
ATOM      3  C   UNL     1      11.704  13.086  42.447  0.00  0.00    +0.000 C 
ATOM      4  C   UNL     1      13.925  12.711  44.325  0.00  0.00    +0.000 C 
ATOM      5  C   UNL     1      11.793  11.794  43.297  0.00  0.00    +0.000 C 
ATOM      6  C   UNL     1      13.269  11.490  43.643  0.00  0.00    +0.000 C 
ENDROOT
BRANCH   6   7
ATOM      7  O   UNL     1      13.352  10.368  44.524  0.00  0.00    +0.000 OA
ATOM      8  H   UNL     1      13.202   9.569  43.982  0.00  0.00    +0.000 HD
ENDBRANCH   6   7
BRANCH   4   9
ATOM      9  O   UNL     1      13.308  12.972  45.595  0.00  0.00    +0.000 OA
ATOM     10  H   UNL     1      13.314  13.944  45.730  0.00  0.00    +0.000 HD
ENDBRANCH   4   9
BRANCH   5  11
ATOM     11  O   UNL     1      11.205  10.689  42.594  0.00  0.00    +0.000 OA
ATOM     12  H   UNL     1      10.867  10.031  43.229  0.00  0.00    +0.000 HD
ENDBRANCH   5  11
BRANCH   2  13
ATOM     13  O   UNL     1      14.307  15.136  44.099  0.00  0.00    +0.000 OA
BRANCH  13  14
ATOM     14  C   UNL     1      15.238  15.985  43.364  0.00  0.00    +0.000 C 
BRANCH  14  15
ATOM     15  C   UNL     1      16.647  15.819  43.917  0.00  0.00    +0.000 A 
ATOM     16  C   UNL     1      17.470  14.815  43.400  0.00  0.00    +0.000 A 
ATOM     17  C   UNL     1      17.139  16.655  44.924  0.00  0.00    +0.000 A 
ATOM     18  C   UNL     1      18.766  14.644  43.885  0.00  0.00    +0.000 A 
ATOM     19  C   UNL     1      18.433  16.482  45.412  0.00  0.00    +0.000 A 
ATOM     20  C   UNL     1      19.247  15.477  44.893  0.00  0.00    +0.000 A 
ENDBRANCH  14  15
BRANCH  14  21
ATOM     21  C   UNL     1      14.821  17.397  43.436  0.00  0.00    +0.000 C 
ATOM     22  N   UNL     1      14.474  18.481  43.456  0.00  0.00    +0.000 NA
ENDBRANCH  14  21
ENDBRANCH  13  14
ENDBRANCH   2  13
BRANCH   3  23
ATOM     23  C   UNL     1      10.227  13.462  42.221  0.00  0.00    +0.000 C 
BRANCH  23  24
ATOM     24  O   UNL     1       9.416  13.063  43.350  0.00  0.00    +0.000 OA
BRANCH  24  25
ATOM     25  C   UNL     1       8.197  12.408  42.933  0.00  0.00    +0.000 C 
ATOM     26  O   UNL     1       7.194  12.439  43.986  0.00  0.00    +0.000 OA
ATOM     27  C   UNL     1       7.640  13.055  41.645  0.00  0.00    +0.000 C 
ATOM     28  C   UNL     1       6.676  13.753  44.336  0.00  0.00    +0.000 C 
ATOM     29  C   UNL     1       6.999  14.437  41.922  0.00  0.00    +0.000 C 
ATOM     30  C   UNL     1       5.983  14.359  43.089  0.00  0.00    +0.000 C 
BRANCH  30  31
ATOM     31  O   UNL     1       5.477  15.670  43.382  0.00  0.00    +0.000 OA
ATOM     32  H   UNL     1       4.523  15.697  43.190  0.00  0.00    +0.000 HD
ENDBRANCH  30  31
BRANCH  29  33
ATOM     33  O   UNL     1       6.346  14.898  40.732  0.00  0.00    +0.000 OA
ATOM     34  H   UNL     1       5.463  15.233  40.989  0.00  0.00    +0.000 HD
ENDBRANCH  29  33
BRANCH  27  35
ATOM     35  O   UNL     1       6.661  12.162  41.113  0.00  0.00    +0.000 OA
ATOM     36  H   UNL     1       7.100  11.295  41.035  0.00  0.00    +0.000 HD
ENDBRANCH  27  35
BRANCH  28  37
ATOM     37  C   UNL     1       5.715  13.602  45.540  0.00  0.00    +0.000 C 
BRANCH  37  38
ATOM     38  O   UNL     1       5.504  14.851  46.208  0.00  0.00    +0.000 OA
ATOM     39  H   UNL     1       6.340  15.354  46.194  0.00  0.00    +0.000 HD
ENDBRANCH  37  38
ENDBRANCH  28  37
ENDBRANCH  24  25
ENDBRANCH  23  24
ENDBRANCH   3  23
TORSDOF 15
ENDMDL
MODEL 14
REMARK VINA RESULT:    -5.669      2.350      4.887
REMARK INTER + INTRA:         -10.797
REMARK INTER:                  -8.932
REMARK INTRA:                  -1.864
REMARK UNBOUND:                -1.316
REMARK  Name = opt76.pdb
REMARK  15 active torsions:
REMARK  status: ('A' for Active; 'I' for Inactive)
REMARK    1  A    between atoms: C_2  and  O_4
REMARK    2  A    between atoms: C_3  and  C_7
REMARK    3  A    between atoms: O_4  and  C_8
REMARK    4  A    between atoms: C_5  and  O_9
REMARK    5  A    between atoms: C_6  and  O_11
REMARK    6  A    between atoms: C_7  and  O_12
REMARK    7  A    between atoms: C_8  and  C_13
REMARK    8  A    between atoms: C_8  and  C_14
REMARK    9  A    between atoms: C_10  and  O_15
REMARK   10  A    between atoms: O_12  and  C_16
REMARK   11  A    between atoms: C_21  and  O_25
REMARK   12  A    between atoms: C_24  and  C_29
REMARK   13  A    between atoms: C_26  and  O_30
REMARK   14  A    between atoms: C_28  and  O_31
REMARK   15  A    between atoms: C_29  and  O_32
REMARK                            x       y       z     vdW  Elec       q    Type
REMARK                         _______ _______ _______ _____ _____    ______ ____
ROOT
ATOM      1  O   UNL     1      11.198  16.041  43.235  0.00  0.00    +0.000 OA
ATOM      2  C   UNL     1      12.441  15.801  43.945  0.00  0.00    +0.000 C 
ATOM      3  C   UNL     1      10.502  17.264  43.602  0.00  0.00    +0.000 C 
ATOM      4  C   UNL     1      13.418  16.957  43.621  0.00  0.00    +0.000 C 
ATOM      5  C   UNL     1      11.412  18.476  43.288  0.00  0.00    +0.000 C 
ATOM      6  C   UNL     1      12.776  18.311  43.997  0.00  0.00    +0.000 C 
ENDROOT
BRANCH   6   7
ATOM      7  O   UNL     1      13.665  19.365  43.618  0.00  0.00    +0.000 OA
ATOM      8  H   UNL     1      14.551  18.966  43.520  0.00  0.00    +0.000 HD
ENDBRANCH   6   7
BRANCH   4   9
ATOM      9  O   UNL     1      13.738  16.920  42.222  0.00  0.00    +0.000 OA
ATOM     10  H   UNL     1      13.560  17.813  41.856  0.00  0.00    +0.000 HD
ENDBRANCH   4   9
BRANCH   5  11
ATOM     11  O   UNL     1      10.780  19.699  43.696  0.00  0.00    +0.000 OA
ATOM     12  H   UNL     1      10.840  19.800  44.664  0.00  0.00    +0.000 HD
ENDBRANCH   5  11
BRANCH   2  13
ATOM     13  O   UNL     1      12.998  14.531  43.510  0.00  0.00    +0.000 OA
BRANCH  13  14
ATOM     14  C   UNL     1      13.771  13.755  44.473  0.00  0.00    +0.000 C 
BRANCH  14  15
ATOM     15  C   UNL     1      15.260  13.996  44.265  0.00  0.00    +0.000 A 
ATOM     16  C   UNL     1      16.084  14.187  45.378  0.00  0.00    +0.000 A 
ATOM     17  C   UNL     1      15.824  14.021  42.986  0.00  0.00    +0.000 A 
ATOM     18  C   UNL     1      17.452  14.405  45.216  0.00  0.00    +0.000 A 
ATOM     19  C   UNL     1      17.190  14.243  42.823  0.00  0.00    +0.000 A 
ATOM     20  C   UNL     1      18.005  14.435  43.938  0.00  0.00    +0.000 A 
ENDBRANCH  14  15
BRANCH  14  21
ATOM     21  C   UNL     1      13.462  12.319  44.352  0.00  0.00    +0.000 C 
ATOM     22  N   UNL     1      13.259  11.201  44.286  0.00  0.00    +0.000 NA
ENDBRANCH  14  21
ENDBRANCH  13  14
ENDBRANCH   2  13
BRANCH   3  23
ATOM     23  C   UNL     1       9.199  17.362  42.787  0.00  0.00    +0.000 C 
BRANCH  23  24
ATOM     24  O   UNL     1       8.345  16.222  43.042  0.00  0.00    +0.000 OA
BRANCH  24  25
ATOM     25  C   UNL     1       7.973  15.544  41.821  0.00  0.00    +0.000 C 
ATOM     26  O   UNL     1       8.988  14.582  41.422  0.00  0.00    +0.000 OA
ATOM     27  C   UNL     1       6.605  14.844  41.976  0.00  0.00    +0.000 C 
ATOM     28  C   UNL     1       9.170  13.441  42.307  0.00  0.00    +0.000 C 
ATOM     29  C   UNL     1       6.702  13.570  42.850  0.00  0.00    +0.000 C 
ATOM     30  C   UNL     1       7.843  12.642  42.361  0.00  0.00    +0.000 C 
BRANCH  30  31
ATOM     31  O   UNL     1       7.968  11.519  43.245  0.00  0.00    +0.000 OA
ATOM     32  H   UNL     1       7.960  10.696  42.724  0.00  0.00    +0.000 HD
ENDBRANCH  30  31
BRANCH  29  33
ATOM     33  O   UNL     1       5.450  12.875  42.807  0.00  0.00    +0.000 OA
ATOM     34  H   UNL     1       5.014  13.103  41.961  0.00  0.00    +0.000 HD
ENDBRANCH  29  33
BRANCH  27  35
ATOM     35  O   UNL     1       6.153  14.503  40.665  0.00  0.00    +0.000 OA
ATOM     36  H   UNL     1       5.460  13.829  40.786  0.00  0.00    +0.000 HD
ENDBRANCH  27  35
BRANCH  28  37
ATOM     37  C   UNL     1      10.357  12.595  41.787  0.00  0.00    +0.000 C 
BRANCH  37  38
ATOM     38  O   UNL     1      11.441  13.419  41.345  0.00  0.00    +0.000 OA
ATOM     39  H   UNL     1      12.038  12.876  40.797  0.00  0.00    +0.000 HD
ENDBRANCH  37  38
ENDBRANCH  28  37
ENDBRANCH  24  25
ENDBRANCH  23  24
ENDBRANCH   3  23
TORSDOF 15
ENDMDL
MODEL 15
REMARK VINA RESULT:    -5.658      2.986      5.054
REMARK INTER + INTRA:         -10.778
REMARK INTER:                  -9.233
REMARK INTRA:                  -1.545
REMARK UNBOUND:                -1.316
REMARK  Name = opt76.pdb
REMARK  15 active torsions:
REMARK  status: ('A' for Active; 'I' for Inactive)
REMARK    1  A    between atoms: C_2  and  O_4
REMARK    2  A    between atoms: C_3  and  C_7
REMARK    3  A    between atoms: O_4  and  C_8
REMARK    4  A    between atoms: C_5  and  O_9
REMARK    5  A    between atoms: C_6  and  O_11
REMARK    6  A    between atoms: C_7  and  O_12
REMARK    7  A    between atoms: C_8  and  C_13
REMARK    8  A    between atoms: C_8  and  C_14
REMARK    9  A    between atoms: C_10  and  O_15
REMARK   10  A    between atoms: O_12  and  C_16
REMARK   11  A    between atoms: C_21  and  O_25
REMARK   12  A    between atoms: C_24  and  C_29
REMARK   13  A    between atoms: C_26  and  O_30
REMARK   14  A    between atoms: C_28  and  O_31
REMARK   15  A    between atoms: C_29  and  O_32
REMARK                            x       y       z     vdW  Elec       q    Type
REMARK                         _______ _______ _______ _____ _____    ______ ____
ROOT
ATOM      1  O   UNL     1      14.841  16.781  44.224  0.00  0.00    +0.000 OA
ATOM      2  C   UNL     1      15.746  17.816  43.757  0.00  0.00    +0.000 C 
ATOM      3  C   UNL     1      13.431  17.031  43.970  0.00  0.00    +0.000 C 
ATOM      4  C   UNL     1      15.607  17.927  42.220  0.00  0.00    +0.000 C 
ATOM      5  C   UNL     1      13.205  17.138  42.442  0.00  0.00    +0.000 C 
ATOM      6  C   UNL     1      14.136  18.216  41.843  0.00  0.00    +0.000 C 
ENDROOT
BRANCH   6   7
ATOM      7  O   UNL     1      14.021  18.239  40.418  0.00  0.00    +0.000 OA
ATOM      8  H   UNL     1      13.070  18.329  40.213  0.00  0.00    +0.000 HD
ENDBRANCH   6   7
BRANCH   4   9
ATOM      9  O   UNL     1      16.051  16.701  41.620  0.00  0.00    +0.000 OA
ATOM     10  H   UNL     1      17.031  16.693  41.661  0.00  0.00    +0.000 HD
ENDBRANCH   4   9
BRANCH   5  11
ATOM     11  O   UNL     1      11.832  17.447  42.157  0.00  0.00    +0.000 OA
ATOM     12  H   UNL     1      11.710  18.412  42.108  0.00  0.00    +0.000 HD
ENDBRANCH   5  11
BRANCH   2  13
ATOM     13  O   UNL     1      17.107  17.452  44.117  0.00  0.00    +0.000 OA
BRANCH  13  14
ATOM     14  C   UNL     1      17.306  16.646  45.316  0.00  0.00    +0.000 C 
BRANCH  14  15
ATOM     15  C   UNL     1      17.963  17.481  46.407  0.00  0.00    +0.000 A 
ATOM     16  C   UNL     1      17.219  17.842  47.534  0.00  0.00    +0.000 A 
ATOM     17  C   UNL     1      19.297  17.888  46.311  0.00  0.00    +0.000 A 
ATOM     18  C   UNL     1      17.797  18.603  48.549  0.00  0.00    +0.000 A 
ATOM     19  C   UNL     1      19.875  18.652  47.323  0.00  0.00    +0.000 A 
ATOM     20  C   UNL     1      19.125  19.009  48.443  0.00  0.00    +0.000 A 
ENDBRANCH  14  15
BRANCH  14  21
ATOM     21  C   UNL     1      18.128  15.459  45.014  0.00  0.00    +0.000 C 
ATOM     22  N   UNL     1      18.794  14.559  44.809  0.00  0.00    +0.000 NA
ENDBRANCH  14  21
ENDBRANCH  13  14
ENDBRANCH   2  13
BRANCH   3  23
ATOM     23  C   UNL     1      12.604  15.864  44.542  0.00  0.00    +0.000 C 
BRANCH  23  24
ATOM     24  O   UNL     1      12.322  14.883  43.516  0.00  0.00    +0.000 OA
BRANCH  24  25
ATOM     25  C   UNL     1      12.085  13.572  44.077  0.00  0.00    +0.000 C 
ATOM     26  O   UNL     1      10.759  13.484  44.668  0.00  0.00    +0.000 OA
ATOM     27  C   UNL     1      12.266  12.475  43.004  0.00  0.00    +0.000 C 
ATOM     28  C   UNL     1       9.640  13.577  43.743  0.00  0.00    +0.000 C 
ATOM     29  C   UNL     1      11.085  12.444  42.003  0.00  0.00    +0.000 C 
ATOM     30  C   UNL     1       9.725  12.396  42.744  0.00  0.00    +0.000 C 
BRANCH  30  31
ATOM     31  O   UNL     1       8.651  12.462  41.794  0.00  0.00    +0.000 OA
ATOM     32  H   UNL     1       8.932  12.990  41.025  0.00  0.00    +0.000 HD
ENDBRANCH  30  31
BRANCH  29  33
ATOM     33  O   UNL     1      11.222  11.300  41.151  0.00  0.00    +0.000 OA
ATOM     34  H   UNL     1      12.177  11.171  40.979  0.00  0.00    +0.000 HD
ENDBRANCH  29  33
BRANCH  27  35
ATOM     35  O   UNL     1      12.357  11.226  43.688  0.00  0.00    +0.000 OA
ATOM     36  H   UNL     1      13.208  11.240  44.163  0.00  0.00    +0.000 HD
ENDBRANCH  27  35
BRANCH  28  37
ATOM     37  C   UNL     1       8.323  13.578  44.557  0.00  0.00    +0.000 C 
BRANCH  37  38
ATOM     38  O   UNL     1       7.224  14.076  43.785  0.00  0.00    +0.000 OA
ATOM     39  H   UNL     1       7.572  14.700  43.121  0.00  0.00    +0.000 HD
ENDBRANCH  37  38
ENDBRANCH  28  37
ENDBRANCH  24  25
ENDBRANCH  23  24
ENDBRANCH   3  23
TORSDOF 15
ENDMDL
MODEL 16
REMARK VINA RESULT:    -5.546      2.802      8.067
REMARK INTER + INTRA:         -10.590
REMARK INTER:                  -9.264
REMARK INTRA:                  -1.326
REMARK UNBOUND:                -1.316
REMARK  Name = opt76.pdb
REMARK  15 active torsions:
REMARK  status: ('A' for Active; 'I' for Inactive)
REMARK    1  A    between atoms: C_2  and  O_4
REMARK    2  A    between atoms: C_3  and  C_7
REMARK    3  A    between atoms: O_4  and  C_8
REMARK    4  A    between atoms: C_5  and  O_9
REMARK    5  A    between atoms: C_6  and  O_11
REMARK    6  A    between atoms: C_7  and  O_12
REMARK    7  A    between atoms: C_8  and  C_13
REMARK    8  A    between atoms: C_8  and  C_14
REMARK    9  A    between atoms: C_10  and  O_15
REMARK   10  A    between atoms: O_12  and  C_16
REMARK   11  A    between atoms: C_21  and  O_25
REMARK   12  A    between atoms: C_24  and  C_29
REMARK   13  A    between atoms: C_26  and  O_30
REMARK   14  A    between atoms: C_28  and  O_31
REMARK   15  A    between atoms: C_29  and  O_32
REMARK                            x       y       z     vdW  Elec       q    Type
REMARK                         _______ _______ _______ _____ _____    ______ ____
ROOT
ATOM      1  O   UNL     1      12.825  14.784  43.289  0.00  0.00    +0.000 OA
ATOM      2  C   UNL     1      11.732  13.850  43.490  0.00  0.00    +0.000 C 
ATOM      3  C   UNL     1      13.794  14.844  44.371  0.00  0.00    +0.000 C 
ATOM      4  C   UNL     1      12.324  12.425  43.605  0.00  0.00    +0.000 C 
ATOM      5  C   UNL     1      14.449  13.451  44.538  0.00  0.00    +0.000 C 
ATOM      6  C   UNL     1      13.360  12.376  44.751  0.00  0.00    +0.000 C 
ENDROOT
BRANCH   6   7
ATOM      7  O   UNL     1      13.946  11.073  44.788  0.00  0.00    +0.000 OA
ATOM      8  H   UNL     1      14.164  10.886  45.722  0.00  0.00    +0.000 HD
ENDBRANCH   6   7
BRANCH   4   9
ATOM      9  O   UNL     1      12.935  12.069  42.356  0.00  0.00    +0.000 OA
ATOM     10  H   UNL     1      13.170  12.903  41.896  0.00  0.00    +0.000 HD
ENDBRANCH   4   9
BRANCH   5  11
ATOM     11  O   UNL     1      15.369  13.458  45.641  0.00  0.00    +0.000 OA
ATOM     12  H   UNL     1      15.371  14.333  46.069  0.00  0.00    +0.000 HD
ENDBRANCH   5  11
BRANCH   2  13
ATOM     13  O   UNL     1      10.825  13.930  42.355  0.00  0.00    +0.000 OA
BRANCH  13  14
ATOM     14  C   UNL     1       9.525  14.558  42.561  0.00  0.00    +0.000 C 
BRANCH  14  15
ATOM     15  C   UNL     1       8.422  13.510  42.499  0.00  0.00    +0.000 A 
ATOM     16  C   UNL     1       8.347  12.535  43.499  0.00  0.00    +0.000 A 
ATOM     17  C   UNL     1       7.475  13.505  41.470  0.00  0.00    +0.000 A 
ATOM     18  C   UNL     1       7.344  11.567  43.468  0.00  0.00    +0.000 A 
ATOM     19  C   UNL     1       6.475  12.536  41.437  0.00  0.00    +0.000 A 
ATOM     20  C   UNL     1       6.409  11.566  42.437  0.00  0.00    +0.000 A 
ENDBRANCH  14  15
BRANCH  14  21
ATOM     21  C   UNL     1       9.290  15.609  41.555  0.00  0.00    +0.000 C 
ATOM     22  N   UNL     1       9.152  16.433  40.781  0.00  0.00    +0.000 NA
ENDBRANCH  14  21
ENDBRANCH  13  14
ENDBRANCH   2  13
BRANCH   3  23
ATOM     23  C   UNL     1      14.869  15.890  44.022  0.00  0.00    +0.000 C 
BRANCH  23  24
ATOM     24  O   UNL     1      16.080  15.248  43.558  0.00  0.00    +0.000 OA
BRANCH  24  25
ATOM     25  C   UNL     1      16.140  15.190  42.116  0.00  0.00    +0.000 C 
ATOM     26  O   UNL     1      16.353  16.509  41.543  0.00  0.00    +0.000 OA
ATOM     27  C   UNL     1      17.248  14.219  41.650  0.00  0.00    +0.000 C 
ATOM     28  C   UNL     1      17.637  17.131  41.830  0.00  0.00    +0.000 C 
ATOM     29  C   UNL     1      18.662  14.818  41.850  0.00  0.00    +0.000 C 
ATOM     30  C   UNL     1      18.759  16.239  41.241  0.00  0.00    +0.000 C 
BRANCH  30  31
ATOM     31  O   UNL     1      20.049  16.802  41.523  0.00  0.00    +0.000 OA
ATOM     32  H   UNL     1      19.971  17.770  41.593  0.00  0.00    +0.000 HD
ENDBRANCH  30  31
BRANCH  29  33
ATOM     33  O   UNL     1      19.628  13.954  41.239  0.00  0.00    +0.000 OA
ATOM     34  H   UNL     1      20.161  14.495  40.621  0.00  0.00    +0.000 HD
ENDBRANCH  29  33
BRANCH  27  35
ATOM     35  O   UNL     1      17.023  13.953  40.266  0.00  0.00    +0.000 OA
ATOM     36  H   UNL     1      17.063  12.984  40.168  0.00  0.00    +0.000 HD
ENDBRANCH  27  35
BRANCH  28  37
ATOM     37  C   UNL     1      17.638  18.562  41.240  0.00  0.00    +0.000 C 
BRANCH  37  38
ATOM     38  O   UNL     1      18.663  19.374  41.824  0.00  0.00    +0.000 OA
ATOM     39  H   UNL     1      19.445  19.348  41.242  0.00  0.00    +0.000 HD
ENDBRANCH  37  38
ENDBRANCH  28  37
ENDBRANCH  24  25
ENDBRANCH  23  24
ENDBRANCH   3  23
TORSDOF 15
ENDMDL
MODEL 17
REMARK VINA RESULT:    -5.442      2.417      4.917
REMARK INTER + INTRA:         -10.416
REMARK INTER:                  -8.530
REMARK INTRA:                  -1.886
REMARK UNBOUND:                -1.316
REMARK  Name = opt76.pdb
REMARK  15 active torsions:
REMARK  status: ('A' for Active; 'I' for Inactive)
REMARK    1  A    between atoms: C_2  and  O_4
REMARK    2  A    between atoms: C_3  and  C_7
REMARK    3  A    between atoms: O_4  and  C_8
REMARK    4  A    between atoms: C_5  and  O_9
REMARK    5  A    between atoms: C_6  and  O_11
REMARK    6  A    between atoms: C_7  and  O_12
REMARK    7  A    between atoms: C_8  and  C_13
REMARK    8  A    between atoms: C_8  and  C_14
REMARK    9  A    between atoms: C_10  and  O_15
REMARK   10  A    between atoms: O_12  and  C_16
REMARK   11  A    between atoms: C_21  and  O_25
REMARK   12  A    between atoms: C_24  and  C_29
REMARK   13  A    between atoms: C_26  and  O_30
REMARK   14  A    between atoms: C_28  and  O_31
REMARK   15  A    between atoms: C_29  and  O_32
REMARK                            x       y       z     vdW  Elec       q    Type
REMARK                         _______ _______ _______ _____ _____    ______ ____
ROOT
ATOM      1  O   UNL     1       9.653  17.072  43.713  0.00  0.00    +0.000 OA
ATOM      2  C   UNL     1      11.051  17.327  43.413  0.00  0.00    +0.000 C 
ATOM      3  C   UNL     1       8.702  17.718  42.822  0.00  0.00    +0.000 C 
ATOM      4  C   UNL     1      11.354  16.775  41.999  0.00  0.00    +0.000 C 
ATOM      5  C   UNL     1       8.930  17.200  41.380  0.00  0.00    +0.000 C 
ATOM      6  C   UNL     1      10.403  17.419  40.966  0.00  0.00    +0.000 C 
ENDROOT
BRANCH   6   7
ATOM      7  O   UNL     1      10.651  16.838  39.684  0.00  0.00    +0.000 OA
ATOM      8  H   UNL     1      10.143  16.005  39.647  0.00  0.00    +0.000 HD
ENDBRANCH   6   7
BRANCH   4   9
ATOM      9  O   UNL     1      11.196  15.348  42.011  0.00  0.00    +0.000 OA
ATOM     10  H   UNL     1      12.023  14.958  41.655  0.00  0.00    +0.000 HD
ENDBRANCH   4   9
BRANCH   5  11
ATOM     11  O   UNL     1       8.047  17.864  40.463  0.00  0.00    +0.000 OA
ATOM     12  H   UNL     1       8.468  18.674  40.121  0.00  0.00    +0.000 HD
ENDBRANCH   5  11
BRANCH   2  13
ATOM     13  O   UNL     1      11.877  16.658  44.405  0.00  0.00    +0.000 OA
BRANCH  13  14
ATOM     14  C   UNL     1      13.324  16.688  44.225  0.00  0.00    +0.000 C 
BRANCH  14  15
ATOM     15  C   UNL     1      13.909  15.299  44.442  0.00  0.00    +0.000 A 
ATOM     16  C   UNL     1      13.046  14.218  44.644  0.00  0.00    +0.000 A 
ATOM     17  C   UNL     1      15.289  15.079  44.435  0.00  0.00    +0.000 A 
ATOM     18  C   UNL     1      13.556  12.935  44.840  0.00  0.00    +0.000 A 
ATOM     19  C   UNL     1      15.799  13.797  44.635  0.00  0.00    +0.000 A 
ATOM     20  C   UNL     1      14.932  12.725  44.838  0.00  0.00    +0.000 A 
ENDBRANCH  14  15
BRANCH  14  21
ATOM     21  C   UNL     1      13.943  17.656  45.149  0.00  0.00    +0.000 C 
ATOM     22  N   UNL     1      14.444  18.369  45.882  0.00  0.00    +0.000 NA
ENDBRANCH  14  21
ENDBRANCH  13  14
ENDBRANCH   2  13
BRANCH   3  23
ATOM     23  C   UNL     1       7.273  17.375  43.282  0.00  0.00    +0.000 C 
BRANCH  23  24
ATOM     24  O   UNL     1       6.659  16.420  42.384  0.00  0.00    +0.000 OA
BRANCH  24  25
ATOM     25  C   UNL     1       6.120  15.283  43.094  0.00  0.00    +0.000 C 
ATOM     26  O   UNL     1       5.635  14.267  42.174  0.00  0.00    +0.000 OA
ATOM     27  C   UNL     1       7.176  14.680  44.048  0.00  0.00    +0.000 C 
ATOM     28  C   UNL     1       6.644  13.609  41.360  0.00  0.00    +0.000 C 
ATOM     29  C   UNL     1       8.266  13.894  43.280  0.00  0.00    +0.000 C 
ATOM     30  C   UNL     1       7.635  12.874  42.298  0.00  0.00    +0.000 C 
BRANCH  30  31
ATOM     31  O   UNL     1       8.666  12.229  41.538  0.00  0.00    +0.000 OA
ATOM     32  H   UNL     1       8.646  12.559  40.621  0.00  0.00    +0.000 HD
ENDBRANCH  30  31
BRANCH  29  33
ATOM     33  O   UNL     1       9.105  13.214  44.223  0.00  0.00    +0.000 OA
ATOM     34  H   UNL     1       9.487  13.888  44.821  0.00  0.00    +0.000 HD
ENDBRANCH  29  33
BRANCH  27  35
ATOM     35  O   UNL     1       6.487  13.808  44.945  0.00  0.00    +0.000 OA
ATOM     36  H   UNL     1       6.081  14.382  45.620  0.00  0.00    +0.000 HD
ENDBRANCH  27  35
BRANCH  28  37
ATOM     37  C   UNL     1       5.937  12.651  40.370  0.00  0.00    +0.000 C 
BRANCH  37  38
ATOM     38  O   UNL     1       6.329  11.290  40.579  0.00  0.00    +0.000 OA
ATOM     39  H   UNL     1       7.119  11.110  40.036  0.00  0.00    +0.000 HD
ENDBRANCH  37  38
ENDBRANCH  28  37
ENDBRANCH  24  25
ENDBRANCH  23  24
ENDBRANCH   3  23
TORSDOF 15
ENDMDL
MODEL 18
REMARK VINA RESULT:    -5.440      2.654      8.031
REMARK INTER + INTRA:         -10.413
REMARK INTER:                  -8.677
REMARK INTRA:                  -1.736
REMARK UNBOUND:                -1.316
REMARK  Name = opt76.pdb
REMARK  15 active torsions:
REMARK  status: ('A' for Active; 'I' for Inactive)
REMARK    1  A    between atoms: C_2  and  O_4
REMARK    2  A    between atoms: C_3  and  C_7
REMARK    3  A    between atoms: O_4  and  C_8
REMARK    4  A    between atoms: C_5  and  O_9
REMARK    5  A    between atoms: C_6  and  O_11
REMARK    6  A    between atoms: C_7  and  O_12
REMARK    7  A    between atoms: C_8  and  C_13
REMARK    8  A    between atoms: C_8  and  C_14
REMARK    9  A    between atoms: C_10  and  O_15
REMARK   10  A    between atoms: O_12  and  C_16
REMARK   11  A    between atoms: C_21  and  O_25
REMARK   12  A    between atoms: C_24  and  C_29
REMARK   13  A    between atoms: C_26  and  O_30
REMARK   14  A    between atoms: C_28  and  O_31
REMARK   15  A    between atoms: C_29  and  O_32
REMARK                            x       y       z     vdW  Elec       q    Type
REMARK                         _______ _______ _______ _____ _____    ______ ____
ROOT
ATOM      1  O   UNL     1      12.280  14.523  43.587  0.00  0.00    +0.000 OA
ATOM      2  C   UNL     1      11.587  13.253  43.709  0.00  0.00    +0.000 C 
ATOM      3  C   UNL     1      13.341  14.744  44.557  0.00  0.00    +0.000 C 
ATOM      4  C   UNL     1      12.612  12.115  43.481  0.00  0.00    +0.000 C 
ATOM      5  C   UNL     1      14.423  13.650  44.379  0.00  0.00    +0.000 C 
ATOM      6  C   UNL     1      13.779  12.249  44.484  0.00  0.00    +0.000 C 
ENDROOT
BRANCH   6   7
ATOM      7  O   UNL     1      14.747  11.235  44.204  0.00  0.00    +0.000 OA
ATOM      8  H   UNL     1      14.876  11.226  43.235  0.00  0.00    +0.000 HD
ENDBRANCH   6   7
BRANCH   4   9
ATOM      9  O   UNL     1      13.094  12.185  42.131  0.00  0.00    +0.000 OA
ATOM     10  H   UNL     1      13.547  11.336  41.937  0.00  0.00    +0.000 HD
ENDBRANCH   4   9
BRANCH   5  11
ATOM     11  O   UNL     1      15.457  13.802  45.363  0.00  0.00    +0.000 OA
ATOM     12  H   UNL     1      15.257  14.558  45.944  0.00  0.00    +0.000 HD
ENDBRANCH   5  11
BRANCH   2  13
ATOM     13  O   UNL     1      10.532  13.191  42.710  0.00  0.00    +0.000 OA
BRANCH  13  14
ATOM     14  C   UNL     1       9.438  14.150  42.810  0.00  0.00    +0.000 C 
BRANCH  14  15
ATOM     15  C   UNL     1       8.151  13.438  43.205  0.00  0.00    +0.000 A 
ATOM     16  C   UNL     1       7.713  12.347  42.448  0.00  0.00    +0.000 A 
ATOM     17  C   UNL     1       7.402  13.844  44.313  0.00  0.00    +0.000 A 
ATOM     18  C   UNL     1       6.541  11.675  42.791  0.00  0.00    +0.000 A 
ATOM     19  C   UNL     1       6.228  13.175  44.654  0.00  0.00    +0.000 A 
ATOM     20  C   UNL     1       5.797  12.090  43.893  0.00  0.00    +0.000 A 
ENDBRANCH  14  15
BRANCH  14  21
ATOM     21  C   UNL     1       9.257  14.868  41.535  0.00  0.00    +0.000 C 
ATOM     22  N   UNL     1       9.072  15.420  40.557  0.00  0.00    +0.000 NA
ENDBRANCH  14  21
ENDBRANCH  13  14
ENDBRANCH   2  13
BRANCH   3  23
ATOM     23  C   UNL     1      13.958  16.135  44.315  0.00  0.00    +0.000 C 
BRANCH  23  24
ATOM     24  O   UNL     1      15.030  16.060  43.346  0.00  0.00    +0.000 OA
BRANCH  24  25
ATOM     25  C   UNL     1      16.125  16.940  43.686  0.00  0.00    +0.000 C 
ATOM     26  O   UNL     1      17.207  16.212  44.330  0.00  0.00    +0.000 OA
ATOM     27  C   UNL     1      16.648  17.675  42.432  0.00  0.00    +0.000 C 
ATOM     28  C   UNL     1      17.903  15.239  43.502  0.00  0.00    +0.000 C 
ATOM     29  C   UNL     1      17.468  16.738  41.511  0.00  0.00    +0.000 C 
ATOM     30  C   UNL     1      18.559  15.983  42.311  0.00  0.00    +0.000 C 
BRANCH  30  31
ATOM     31  O   UNL     1      19.239  15.057  41.451  0.00  0.00    +0.000 OA
ATOM     32  H   UNL     1      19.867  15.542  40.887  0.00  0.00    +0.000 HD
ENDBRANCH  30  31
BRANCH  29  33
ATOM     33  O   UNL     1      18.072  17.515  40.469  0.00  0.00    +0.000 OA
ATOM     34  H   UNL     1      18.822  18.006  40.862  0.00  0.00    +0.000 HD
ENDBRANCH  29  33
BRANCH  27  35
ATOM     35  O   UNL     1      17.468  18.753  42.885  0.00  0.00    +0.000 OA
ATOM     36  H   UNL     1      17.083  19.563  42.504  0.00  0.00    +0.000 HD
ENDBRANCH  27  35
BRANCH  28  37
ATOM     37  C   UNL     1      18.934  14.489  44.380  0.00  0.00    +0.000 C 
BRANCH  37  38
ATOM     38  O   UNL     1      20.245  15.052  44.254  0.00  0.00    +0.000 OA
ATOM     39  H   UNL     1      20.896  14.383  44.539  0.00  0.00    +0.000 HD
ENDBRANCH  37  38
ENDBRANCH  28  37
ENDBRANCH  24  25
ENDBRANCH  23  24
ENDBRANCH   3  23
TORSDOF 15
ENDMDL
MODEL 19
REMARK VINA RESULT:    -5.431      2.878      8.325
REMARK INTER + INTRA:         -10.399
REMARK INTER:                  -8.986
REMARK INTRA:                  -1.413
REMARK UNBOUND:                -1.316
REMARK  Name = opt76.pdb
REMARK  15 active torsions:
REMARK  status: ('A' for Active; 'I' for Inactive)
REMARK    1  A    between atoms: C_2  and  O_4
REMARK    2  A    between atoms: C_3  and  C_7
REMARK    3  A    between atoms: O_4  and  C_8
REMARK    4  A    between atoms: C_5  and  O_9
REMARK    5  A    between atoms: C_6  and  O_11
REMARK    6  A    between atoms: C_7  and  O_12
REMARK    7  A    between atoms: C_8  and  C_13
REMARK    8  A    between atoms: C_8  and  C_14
REMARK    9  A    between atoms: C_10  and  O_15
REMARK   10  A    between atoms: O_12  and  C_16
REMARK   11  A    between atoms: C_21  and  O_25
REMARK   12  A    between atoms: C_24  and  C_29
REMARK   13  A    between atoms: C_26  and  O_30
REMARK   14  A    between atoms: C_28  and  O_31
REMARK   15  A    between atoms: C_29  and  O_32
REMARK                            x       y       z     vdW  Elec       q    Type
REMARK                         _______ _______ _______ _____ _____    ______ ____
ROOT
ATOM      1  O   UNL     1      12.594  14.254  43.251  0.00  0.00    +0.000 OA
ATOM      2  C   UNL     1      11.592  13.267  43.610  0.00  0.00    +0.000 C 
ATOM      3  C   UNL     1      13.717  14.357  44.168  0.00  0.00    +0.000 C 
ATOM      4  C   UNL     1      12.262  11.872  43.617  0.00  0.00    +0.000 C 
ATOM      5  C   UNL     1      14.456  12.997  44.217  0.00  0.00    +0.000 C 
ATOM      6  C   UNL     1      13.465  11.870  44.586  0.00  0.00    +0.000 C 
ENDROOT
BRANCH   6   7
ATOM      7  O   UNL     1      14.111  10.597  44.517  0.00  0.00    +0.000 OA
ATOM      8  H   UNL     1      13.905  10.129  45.350  0.00  0.00    +0.000 HD
ENDBRANCH   6   7
BRANCH   4   9
ATOM      9  O   UNL     1      12.685  11.550  42.284  0.00  0.00    +0.000 OA
ATOM     10  H   UNL     1      12.005  10.961  41.894  0.00  0.00    +0.000 HD
ENDBRANCH   4   9
BRANCH   5  11
ATOM     11  O   UNL     1      15.536  13.045  45.162  0.00  0.00    +0.000 OA
ATOM     12  H   UNL     1      15.642  13.952  45.502  0.00  0.00    +0.000 HD
ENDBRANCH   5  11
BRANCH   2  13
ATOM     13  O   UNL     1      10.516  13.307  42.633  0.00  0.00    +0.000 OA
BRANCH  13  14
ATOM     14  C   UNL     1       9.462  14.300  42.814  0.00  0.00    +0.000 C 
BRANCH  14  15
ATOM     15  C   UNL     1       8.176  13.622  43.267  0.00  0.00    +0.000 A 
ATOM     16  C   UNL     1       7.677  12.541  42.534  0.00  0.00    +0.000 A 
ATOM     17  C   UNL     1       7.487  14.051  44.405  0.00  0.00    +0.000 A 
ATOM     18  C   UNL     1       6.504  11.900  42.931  0.00  0.00    +0.000 A 
ATOM     19  C   UNL     1       6.312  13.414  44.800  0.00  0.00    +0.000 A 
ATOM     20  C   UNL     1       5.821  12.338  44.062  0.00  0.00    +0.000 A 
ENDBRANCH  14  15
BRANCH  14  21
ATOM     21  C   UNL     1       9.235  15.050  41.565  0.00  0.00    +0.000 C 
ATOM     22  N   UNL     1       9.081  15.597  40.579  0.00  0.00    +0.000 NA
ENDBRANCH  14  21
ENDBRANCH  13  14
ENDBRANCH   2  13
BRANCH   3  23
ATOM     23  C   UNL     1      14.674  15.455  43.667  0.00  0.00    +0.000 C 
BRANCH  23  24
ATOM     24  O   UNL     1      15.749  14.883  42.885  0.00  0.00    +0.000 OA
BRANCH  24  25
ATOM     25  C   UNL     1      16.554  15.901  42.250  0.00  0.00    +0.000 C 
ATOM     26  O   UNL     1      17.342  16.636  43.225  0.00  0.00    +0.000 OA
ATOM     27  C   UNL     1      17.475  15.281  41.175  0.00  0.00    +0.000 C 
ATOM     28  C   UNL     1      18.378  15.879  43.911  0.00  0.00    +0.000 C 
ATOM     29  C   UNL     1      18.657  14.505  41.804  0.00  0.00    +0.000 C 
ATOM     30  C   UNL     1      19.395  15.368  42.859  0.00  0.00    +0.000 C 
BRANCH  30  31
ATOM     31  O   UNL     1      20.424  14.592  43.489  0.00  0.00    +0.000 OA
ATOM     32  H   UNL     1      20.740  15.058  44.284  0.00  0.00    +0.000 HD
ENDBRANCH  30  31
BRANCH  29  33
ATOM     33  O   UNL     1      19.566  14.113  40.768  0.00  0.00    +0.000 OA
ATOM     34  H   UNL     1      19.104  13.463  40.200  0.00  0.00    +0.000 HD
ENDBRANCH  29  33
BRANCH  27  35
ATOM     35  O   UNL     1      17.968  16.354  40.372  0.00  0.00    +0.000 OA
ATOM     36  H   UNL     1      17.559  17.165  40.724  0.00  0.00    +0.000 HD
ENDBRANCH  27  35
BRANCH  28  37
ATOM     37  C   UNL     1      19.030  16.786  44.982  0.00  0.00    +0.000 C 
BRANCH  37  38
ATOM     38  O   UNL     1      20.309  17.271  44.558  0.00  0.00    +0.000 OA
ATOM     39  H   UNL     1      20.349  17.224  43.584  0.00  0.00    +0.000 HD
ENDBRANCH  37  38
ENDBRANCH  28  37
ENDBRANCH  24  25
ENDBRANCH  23  24
ENDBRANCH   3  23
TORSDOF 15
ENDMDL
MODEL 20
REMARK VINA RESULT:    -5.295      2.133      4.076
REMARK INTER + INTRA:         -10.171
REMARK INTER:                  -8.164
REMARK INTRA:                  -2.006
REMARK UNBOUND:                -1.316
REMARK  Name = opt76.pdb
REMARK  15 active torsions:
REMARK  status: ('A' for Active; 'I' for Inactive)
REMARK    1  A    between atoms: C_2  and  O_4
REMARK    2  A    between atoms: C_3  and  C_7
REMARK    3  A    between atoms: O_4  and  C_8
REMARK    4  A    between atoms: C_5  and  O_9
REMARK    5  A    between atoms: C_6  and  O_11
REMARK    6  A    between atoms: C_7  and  O_12
REMARK    7  A    between atoms: C_8  and  C_13
REMARK    8  A    between atoms: C_8  and  C_14
REMARK    9  A    between atoms: C_10  and  O_15
REMARK   10  A    between atoms: O_12  and  C_16
REMARK   11  A    between atoms: C_21  and  O_25
REMARK   12  A    between atoms: C_24  and  C_29
REMARK   13  A    between atoms: C_26  and  O_30
REMARK   14  A    between atoms: C_28  and  O_31
REMARK   15  A    between atoms: C_29  and  O_32
REMARK                            x       y       z     vdW  Elec       q    Type
REMARK                         _______ _______ _______ _____ _____    ______ ____
ROOT
ATOM      1  O   UNL     1      12.159  14.016  43.325  0.00  0.00    +0.000 OA
ATOM      2  C   UNL     1      13.599  14.041  43.503  0.00  0.00    +0.000 C 
ATOM      3  C   UNL     1      11.637  12.829  42.667  0.00  0.00    +0.000 C 
ATOM      4  C   UNL     1      13.998  12.848  44.405  0.00  0.00    +0.000 C 
ATOM      5  C   UNL     1      11.981  11.585  43.524  0.00  0.00    +0.000 C 
ATOM      6  C   UNL     1      13.504  11.525  43.779  0.00  0.00    +0.000 C 
ENDROOT
BRANCH   6   7
ATOM      7  O   UNL     1      13.818  10.449  44.666  0.00  0.00    +0.000 OA
ATOM      8  H   UNL     1      14.769  10.524  44.878  0.00  0.00    +0.000 HD
ENDBRANCH   6   7
BRANCH   4   9
ATOM      9  O   UNL     1      13.427  13.036  45.709  0.00  0.00    +0.000 OA
ATOM     10  H   UNL     1      12.517  12.671  45.685  0.00  0.00    +0.000 HD
ENDBRANCH   4   9
BRANCH   5  11
ATOM     11  O   UNL     1      11.534  10.387  42.872  0.00  0.00    +0.000 OA
ATOM     12  H   UNL     1      11.141   9.778  43.524  0.00  0.00    +0.000 HD
ENDBRANCH   5  11
BRANCH   2  13
ATOM     13  O   UNL     1      13.977  15.298  44.129  0.00  0.00    +0.000 OA
BRANCH  13  14
ATOM     14  C   UNL     1      14.943  16.144  43.437  0.00  0.00    +0.000 C 
BRANCH  14  15
ATOM     15  C   UNL     1      16.350  15.592  43.623  0.00  0.00    +0.000 A 
ATOM     16  C   UNL     1      16.897  15.529  44.908  0.00  0.00    +0.000 A 
ATOM     17  C   UNL     1      17.105  15.138  42.537  0.00  0.00    +0.000 A 
ATOM     18  C   UNL     1      18.181  15.024  45.105  0.00  0.00    +0.000 A 
ATOM     19  C   UNL     1      18.391  14.637  42.733  0.00  0.00    +0.000 A 
ATOM     20  C   UNL     1      18.929  14.580  44.017  0.00  0.00    +0.000 A 
ENDBRANCH  14  15
BRANCH  14  21
ATOM     21  C   UNL     1      14.867  17.531  43.931  0.00  0.00    +0.000 C 
ATOM     22  N   UNL     1      14.826  18.588  44.350  0.00  0.00    +0.000 NA
ENDBRANCH  14  21
ENDBRANCH  13  14
ENDBRANCH   2  13
BRANCH   3  23
ATOM     23  C   UNL     1      10.108  12.963  42.530  0.00  0.00    +0.000 C 
BRANCH  23  24
ATOM     24  O   UNL     1       9.765  13.818  41.415  0.00  0.00    +0.000 OA
BRANCH  24  25
ATOM     25  C   UNL     1       8.775  14.805  41.778  0.00  0.00    +0.000 C 
ATOM     26  O   UNL     1       9.310  15.765  42.730  0.00  0.00    +0.000 OA
ATOM     27  C   UNL     1       8.242  15.535  40.525  0.00  0.00    +0.000 C 
ATOM     28  C   UNL     1      10.370  16.631  42.235  0.00  0.00    +0.000 C 
ATOM     29  C   UNL     1       9.275  16.539  39.957  0.00  0.00    +0.000 C 
ATOM     30  C   UNL     1       9.809  17.480  41.066  0.00  0.00    +0.000 C 
BRANCH  30  31
ATOM     31  O   UNL     1      10.830  18.334  40.529  0.00  0.00    +0.000 OA
ATOM     32  H   UNL     1      11.155  18.927  41.229  0.00  0.00    +0.000 HD
ENDBRANCH  30  31
BRANCH  29  33
ATOM     33  O   UNL     1       8.659  17.307  38.915  0.00  0.00    +0.000 OA
ATOM     34  H   UNL     1       7.961  17.858  39.326  0.00  0.00    +0.000 HD
ENDBRANCH  29  33
BRANCH  27  35
ATOM     35  O   UNL     1       7.053  16.226  40.911  0.00  0.00    +0.000 OA
ATOM     36  H   UNL     1       7.163  17.144  40.604  0.00  0.00    +0.000 HD
ENDBRANCH  27  35
BRANCH  28  37
ATOM     37  C   UNL     1      10.889  17.498  43.408  0.00  0.00    +0.000 C 
BRANCH  37  38
ATOM     38  O   UNL     1      11.455  16.695  44.450  0.00  0.00    +0.000 OA
ATOM     39  H   UNL     1      11.808  15.877  44.051  0.00  0.00    +0.000 HD
ENDBRANCH  37  38
ENDBRANCH  28  37
ENDBRANCH  24  25
ENDBRANCH  23  24
ENDBRANCH   3  23
TORSDOF 15
ENDMDL
