MODEL 1
REMARK VINA RESULT:    -6.424      0.000      0.000
REMARK INTER + INTRA:          -7.691
REMARK INTER:                  -7.363
REMARK INTRA:                  -0.328
REMARK UNBOUND:                -0.328
REMARK  Name = opt69.pdb
REMARK  4 active torsions:
REMARK  status: ('A' for Active; 'I' for Inactive)
REMARK    1  A    between atoms: C_3  and  C_5
REMARK    2  A    between atoms: C_16  and  O_18
REMARK    3  A    between atoms: C_17  and  O_19
REMARK    4  A    between atoms: O_19  and  C_20
REMARK                            x       y       z     vdW  Elec       q    Type
REMARK                         _______ _______ _______ _____ _____    ______ ____
ROOT
ATOM      1  O   UNL     1      13.046  12.183  44.740  0.00  0.00    +0.000 OA
ATOM      2  C   UNL     1      13.129  13.380  44.533  0.00  0.00    +0.000 A 
ATOM      3  C   UNL     1      12.032  14.190  43.975  0.00  0.00    +0.000 A 
ATOM      4  C   UNL     1      14.345  14.150  44.813  0.00  0.00    +0.000 A 
ATOM      5  C   UNL     1      12.181  15.546  43.758  0.00  0.00    +0.000 A 
ATOM      6  C   UNL     1      14.389  15.512  44.556  0.00  0.00    +0.000 A 
ATOM      7  C   UNL     1      15.536  13.531  45.358  0.00  0.00    +0.000 A 
ATOM      8  O   UNL     1      13.339  16.254  44.037  0.00  0.00    +0.000 OA
ATOM      9  C   UNL     1      15.603  16.242  44.840  0.00  0.00    +0.000 A 
ATOM     10  C   UNL     1      16.693  14.253  45.621  0.00  0.00    +0.000 A 
ATOM     11  C   UNL     1      16.730  15.616  45.363  0.00  0.00    +0.000 A 
ENDROOT
BRANCH   3  12
ATOM     12  C   UNL     1      11.044  13.756  43.703  0.00  0.00    +0.000 A 
ATOM     13  C   UNL     1       9.956  13.853  44.593  0.00  0.00    +0.000 A 
ATOM     14  C   UNL     1      10.849  13.142  42.451  0.00  0.00    +0.000 A 
ATOM     15  C   UNL     1       8.708  13.346  44.235  0.00  0.00    +0.000 A 
ATOM     16  C   UNL     1       9.596  12.638  42.108  0.00  0.00    +0.000 A 
ATOM     17  C   UNL     1       8.524  12.737  42.991  0.00  0.00    +0.000 A 
BRANCH  17  18
ATOM     18  O   UNL     1       7.306  12.221  42.584  0.00  0.00    +0.000 OA
ATOM     19  C   UNL     1       6.666  11.087  43.214  0.00  0.00    +0.000 C 
ENDBRANCH  17  18
ENDBRANCH   3  12
BRANCH  11  20
ATOM     20  O   UNL     1      17.867  16.324  45.622  0.00  0.00    +0.000 OA
ATOM     21  H   UNL     1      17.658  17.270  45.728  0.00  0.00    +0.000 HD
ENDBRANCH  11  20
TORSDOF 3
ENDMDL
MODEL 2
REMARK VINA RESULT:    -6.337      0.153      1.092
REMARK INTER + INTRA:          -7.592
REMARK INTER:                  -7.277
REMARK INTRA:                  -0.315
REMARK UNBOUND:                -0.328
REMARK  Name = opt69.pdb
REMARK  4 active torsions:
REMARK  status: ('A' for Active; 'I' for Inactive)
REMARK    1  A    between atoms: C_3  and  C_5
REMARK    2  A    between atoms: C_16  and  O_18
REMARK    3  A    between atoms: C_17  and  O_19
REMARK    4  A    between atoms: O_19  and  C_20
REMARK                            x       y       z     vdW  Elec       q    Type
REMARK                         _______ _______ _______ _____ _____    ______ ____
ROOT
ATOM      1  O   UNL     1      12.903  12.237  44.653  0.00  0.00    +0.000 OA
ATOM      2  C   UNL     1      13.001  13.439  44.485  0.00  0.00    +0.000 A 
ATOM      3  C   UNL     1      11.906  14.284  43.978  0.00  0.00    +0.000 A 
ATOM      4  C   UNL     1      14.234  14.180  44.767  0.00  0.00    +0.000 A 
ATOM      5  C   UNL     1      12.072  15.645  43.806  0.00  0.00    +0.000 A 
ATOM      6  C   UNL     1      14.294  15.550  44.557  0.00  0.00    +0.000 A 
ATOM      7  C   UNL     1      15.426  13.525  45.266  0.00  0.00    +0.000 A 
ATOM      8  O   UNL     1      13.247  16.325  44.086  0.00  0.00    +0.000 OA
ATOM      9  C   UNL     1      15.525  16.251  44.841  0.00  0.00    +0.000 A 
ATOM     10  C   UNL     1      16.599  14.219  45.530  0.00  0.00    +0.000 A 
ATOM     11  C   UNL     1      16.652  15.590  45.318  0.00  0.00    +0.000 A 
ENDROOT
BRANCH   3  12
ATOM     12  C   UNL     1      10.906  13.876  43.712  0.00  0.00    +0.000 A 
ATOM     13  C   UNL     1      10.687  13.305  42.442  0.00  0.00    +0.000 A 
ATOM     14  C   UNL     1       9.854  13.881  44.648  0.00  0.00    +0.000 A 
ATOM     15  C   UNL     1       9.446  12.758  42.122  0.00  0.00    +0.000 A 
ATOM     16  C   UNL     1       8.618  13.330  44.313  0.00  0.00    +0.000 A 
ATOM     17  C   UNL     1       8.408  12.767  43.057  0.00  0.00    +0.000 A 
BRANCH  17  18
ATOM     18  O   UNL     1       7.159  12.233  42.793  0.00  0.00    +0.000 OA
ATOM     19  C   UNL     1       6.711  10.955  43.301  0.00  0.00    +0.000 C 
ENDBRANCH  17  18
ENDBRANCH   3  12
BRANCH  11  20
ATOM     20  O   UNL     1      17.806  16.271  45.579  0.00  0.00    +0.000 OA
ATOM     21  H   UNL     1      17.706  17.209  45.334  0.00  0.00    +0.000 HD
ENDBRANCH  11  20
TORSDOF 3
ENDMDL
MODEL 3
REMARK VINA RESULT:    -6.206      1.514      7.236
REMARK INTER + INTRA:          -7.441
REMARK INTER:                  -7.092
REMARK INTRA:                  -0.350
REMARK UNBOUND:                -0.328
REMARK  Name = opt69.pdb
REMARK  4 active torsions:
REMARK  status: ('A' for Active; 'I' for Inactive)
REMARK    1  A    between atoms: C_3  and  C_5
REMARK    2  A    between atoms: C_16  and  O_18
REMARK    3  A    between atoms: C_17  and  O_19
REMARK    4  A    between atoms: O_19  and  C_20
REMARK                            x       y       z     vdW  Elec       q    Type
REMARK                         _______ _______ _______ _____ _____    ______ ____
ROOT
ATOM      1  O   UNL     1      13.097  15.963  44.121  0.00  0.00    +0.000 OA
ATOM      2  C   UNL     1      12.817  14.781  44.030  0.00  0.00    +0.000 A 
ATOM      3  C   UNL     1      13.808  13.697  44.139  0.00  0.00    +0.000 A 
ATOM      4  C   UNL     1      11.450  14.307  43.794  0.00  0.00    +0.000 A 
ATOM      5  C   UNL     1      13.436  12.372  44.027  0.00  0.00    +0.000 A 
ATOM      6  C   UNL     1      11.184  12.950  43.696  0.00  0.00    +0.000 A 
ATOM      7  C   UNL     1      10.335  15.221  43.651  0.00  0.00    +0.000 A 
ATOM      8  O   UNL     1      12.134  11.947  43.810  0.00  0.00    +0.000 OA
ATOM      9  C   UNL     1       9.827  12.514  43.459  0.00  0.00    +0.000 A 
ATOM     10  C   UNL     1       9.038  14.780  43.421  0.00  0.00    +0.000 A 
ATOM     11  C   UNL     1       8.779  13.420  43.325  0.00  0.00    +0.000 A 
ENDROOT
BRANCH   3  12
ATOM     12  C   UNL     1      14.891  13.888  44.313  0.00  0.00    +0.000 A 
ATOM     13  C   UNL     1      15.420  13.839  45.618  0.00  0.00    +0.000 A 
ATOM     14  C   UNL     1      15.758  14.140  43.233  0.00  0.00    +0.000 A 
ATOM     15  C   UNL     1      16.783  14.038  45.831  0.00  0.00    +0.000 A 
ATOM     16  C   UNL     1      17.119  14.339  43.463  0.00  0.00    +0.000 A 
ATOM     17  C   UNL     1      17.637  14.288  44.754  0.00  0.00    +0.000 A 
BRANCH  17  18
ATOM     18  O   UNL     1      18.997  14.488  44.909  0.00  0.00    +0.000 OA
ATOM     19  C   UNL     1      19.941  14.459  43.813  0.00  0.00    +0.000 C 
ENDBRANCH  17  18
ENDBRANCH   3  12
BRANCH  11  20
ATOM     20  O   UNL     1       7.505  12.988  43.101  0.00  0.00    +0.000 OA
ATOM     21  H   UNL     1       7.335  12.167  43.599  0.00  0.00    +0.000 HD
ENDBRANCH  11  20
TORSDOF 3
ENDMDL
MODEL 4
REMARK VINA RESULT:    -6.196      1.715      7.370
REMARK INTER + INTRA:          -7.430
REMARK INTER:                  -7.217
REMARK INTRA:                  -0.213
REMARK UNBOUND:                -0.328
REMARK  Name = opt69.pdb
REMARK  4 active torsions:
REMARK  status: ('A' for Active; 'I' for Inactive)
REMARK    1  A    between atoms: C_3  and  C_5
REMARK    2  A    between atoms: C_16  and  O_18
REMARK    3  A    between atoms: C_17  and  O_19
REMARK    4  A    between atoms: O_19  and  C_20
REMARK                            x       y       z     vdW  Elec       q    Type
REMARK                         _______ _______ _______ _____ _____    ______ ____
ROOT
ATOM      1  O   UNL     1      13.588  15.535  42.539  0.00  0.00    +0.000 OA
ATOM      2  C   UNL     1      13.219  14.432  42.901  0.00  0.00    +0.000 A 
ATOM      3  C   UNL     1      14.062  13.500  43.669  0.00  0.00    +0.000 A 
ATOM      4  C   UNL     1      11.883  13.906  42.600  0.00  0.00    +0.000 A 
ATOM      5  C   UNL     1      13.592  12.258  44.053  0.00  0.00    +0.000 A 
ATOM      6  C   UNL     1      11.512  12.642  43.033  0.00  0.00    +0.000 A 
ATOM      7  C   UNL     1      10.910  14.671  41.848  0.00  0.00    +0.000 A 
ATOM      8  O   UNL     1      12.322  11.786  43.762  0.00  0.00    +0.000 OA
ATOM      9  C   UNL     1      10.190  12.152  42.719  0.00  0.00    +0.000 A 
ATOM     10  C   UNL     1       9.644  14.177  41.555  0.00  0.00    +0.000 A 
ATOM     11  C   UNL     1       9.279  12.912  41.992  0.00  0.00    +0.000 A 
ENDROOT
BRANCH   3  12
ATOM     12  C   UNL     1      15.104  13.744  43.973  0.00  0.00    +0.000 A 
ATOM     13  C   UNL     1      15.415  13.964  45.330  0.00  0.00    +0.000 A 
ATOM     14  C   UNL     1      16.138  13.796  43.019  0.00  0.00    +0.000 A 
ATOM     15  C   UNL     1      16.727  14.231  45.715  0.00  0.00    +0.000 A 
ATOM     16  C   UNL     1      17.445  14.064  43.420  0.00  0.00    +0.000 A 
ATOM     17  C   UNL     1      17.747  14.281  44.761  0.00  0.00    +0.000 A 
BRANCH  17  18
ATOM     18  O   UNL     1      19.067  14.536  45.090  0.00  0.00    +0.000 OA
ATOM     19  C   UNL     1      19.811  15.671  44.591  0.00  0.00    +0.000 C 
ENDBRANCH  17  18
ENDBRANCH   3  12
BRANCH  11  20
ATOM     20  O   UNL     1       8.036  12.429  41.704  0.00  0.00    +0.000 OA
ATOM     21  H   UNL     1       8.022  12.046  40.808  0.00  0.00    +0.000 HD
ENDBRANCH  11  20
TORSDOF 3
ENDMDL
MODEL 5
REMARK VINA RESULT:    -6.178      1.427      7.274
REMARK INTER + INTRA:          -7.409
REMARK INTER:                  -7.094
REMARK INTRA:                  -0.316
REMARK UNBOUND:                -0.328
REMARK  Name = opt69.pdb
REMARK  4 active torsions:
REMARK  status: ('A' for Active; 'I' for Inactive)
REMARK    1  A    between atoms: C_3  and  C_5
REMARK    2  A    between atoms: C_16  and  O_18
REMARK    3  A    between atoms: C_17  and  O_19
REMARK    4  A    between atoms: O_19  and  C_20
REMARK                            x       y       z     vdW  Elec       q    Type
REMARK                         _______ _______ _______ _____ _____    ______ ____
ROOT
ATOM      1  O   UNL     1      12.823  15.887  44.117  0.00  0.00    +0.000 OA
ATOM      2  C   UNL     1      12.531  14.712  43.981  0.00  0.00    +0.000 A 
ATOM      3  C   UNL     1      13.509  13.614  44.069  0.00  0.00    +0.000 A 
ATOM      4  C   UNL     1      11.164  14.262  43.705  0.00  0.00    +0.000 A 
ATOM      5  C   UNL     1      13.124  12.297  43.905  0.00  0.00    +0.000 A 
ATOM      6  C   UNL     1      10.885  12.911  43.557  0.00  0.00    +0.000 A 
ATOM      7  C   UNL     1      10.061  15.193  43.575  0.00  0.00    +0.000 A 
ATOM      8  O   UNL     1      11.822  11.895  43.652  0.00  0.00    +0.000 OA
ATOM      9  C   UNL     1       9.527  12.500  43.283  0.00  0.00    +0.000 A 
ATOM     10  C   UNL     1       8.764  14.774  43.309  0.00  0.00    +0.000 A 
ATOM     11  C   UNL     1       8.492  13.421  43.162  0.00  0.00    +0.000 A 
ENDROOT
BRANCH   3  12
ATOM     12  C   UNL     1      14.590  13.786  44.267  0.00  0.00    +0.000 A 
ATOM     13  C   UNL     1      15.460  14.125  43.212  0.00  0.00    +0.000 A 
ATOM     14  C   UNL     1      15.101  13.712  45.577  0.00  0.00    +0.000 A 
ATOM     15  C   UNL     1      16.807  14.380  43.467  0.00  0.00    +0.000 A 
ATOM     16  C   UNL     1      16.450  13.969  45.816  0.00  0.00    +0.000 A 
ATOM     17  C   UNL     1      17.306  14.304  44.770  0.00  0.00    +0.000 A 
BRANCH  17  18
ATOM     18  O   UNL     1      18.632  14.553  45.078  0.00  0.00    +0.000 OA
ATOM     19  C   UNL     1      19.720  14.370  44.142  0.00  0.00    +0.000 C 
ENDBRANCH  17  18
ENDBRANCH   3  12
BRANCH  11  20
ATOM     20  O   UNL     1       7.217  13.011  42.902  0.00  0.00    +0.000 OA
ATOM     21  H   UNL     1       7.013  12.201  43.405  0.00  0.00    +0.000 HD
ENDBRANCH  11  20
TORSDOF 3
ENDMDL
MODEL 6
REMARK VINA RESULT:    -6.171      2.013      7.235
REMARK INTER + INTRA:          -7.401
REMARK INTER:                  -7.085
REMARK INTRA:                  -0.316
REMARK UNBOUND:                -0.328
REMARK  Name = opt69.pdb
REMARK  4 active torsions:
REMARK  status: ('A' for Active; 'I' for Inactive)
REMARK    1  A    between atoms: C_3  and  C_5
REMARK    2  A    between atoms: C_16  and  O_18
REMARK    3  A    between atoms: C_17  and  O_19
REMARK    4  A    between atoms: O_19  and  C_20
REMARK                            x       y       z     vdW  Elec       q    Type
REMARK                         _______ _______ _______ _____ _____    ______ ____
ROOT
ATOM      1  O   UNL     1      11.293  15.010  44.533  0.00  0.00    +0.000 OA
ATOM      2  C   UNL     1      10.936  13.977  43.995  0.00  0.00    +0.000 A 
ATOM      3  C   UNL     1      11.869  12.992  43.420  0.00  0.00    +0.000 A 
ATOM      4  C   UNL     1       9.525  13.603  43.854  0.00  0.00    +0.000 A 
ATOM      5  C   UNL     1      11.409  11.836  42.819  0.00  0.00    +0.000 A 
ATOM      6  C   UNL     1       9.172  12.416  43.231  0.00  0.00    +0.000 A 
ATOM      7  C   UNL     1       8.456  14.446  44.350  0.00  0.00    +0.000 A 
ATOM      8  O   UNL     1      10.069  11.501  42.704  0.00  0.00    +0.000 OA
ATOM      9  C   UNL     1       7.773  12.078  43.105  0.00  0.00    +0.000 A 
ATOM     10  C   UNL     1       7.117  14.101  44.215  0.00  0.00    +0.000 A 
ATOM     11  C   UNL     1       6.770  12.911  43.591  0.00  0.00    +0.000 A 
ENDROOT
BRANCH   3  12
ATOM     12  C   UNL     1      12.973  13.128  43.440  0.00  0.00    +0.000 A 
ATOM     13  C   UNL     1      13.609  13.914  42.458  0.00  0.00    +0.000 A 
ATOM     14  C   UNL     1      13.750  12.555  44.465  0.00  0.00    +0.000 A 
ATOM     15  C   UNL     1      14.987  14.117  42.505  0.00  0.00    +0.000 A 
ATOM     16  C   UNL     1      15.127  12.767  44.498  0.00  0.00    +0.000 A 
ATOM     17  C   UNL     1      15.751  13.544  43.527  0.00  0.00    +0.000 A 
BRANCH  17  18
ATOM     18  O   UNL     1      17.120  13.718  43.623  0.00  0.00    +0.000 OA
ATOM     19  C   UNL     1      17.859  14.697  42.857  0.00  0.00    +0.000 C 
ENDBRANCH  17  18
ENDBRANCH   3  12
BRANCH  11  20
ATOM     20  O   UNL     1       5.455  12.573  43.461  0.00  0.00    +0.000 OA
ATOM     21  H   UNL     1       5.195  12.586  42.521  0.00  0.00    +0.000 HD
ENDBRANCH  11  20
TORSDOF 3
ENDMDL
MODEL 7
REMARK VINA RESULT:    -5.899      1.094      2.330
REMARK INTER + INTRA:          -7.090
REMARK INTER:                  -6.762
REMARK INTRA:                  -0.328
REMARK UNBOUND:                -0.328
REMARK  Name = opt69.pdb
REMARK  4 active torsions:
REMARK  status: ('A' for Active; 'I' for Inactive)
REMARK    1  A    between atoms: C_3  and  C_5
REMARK    2  A    between atoms: C_16  and  O_18
REMARK    3  A    between atoms: C_17  and  O_19
REMARK    4  A    between atoms: O_19  and  C_20
REMARK                            x       y       z     vdW  Elec       q    Type
REMARK                         _______ _______ _______ _____ _____    ______ ____
ROOT
ATOM      1  O   UNL     1      11.693  15.968  44.050  0.00  0.00    +0.000 OA
ATOM      2  C   UNL     1      12.234  14.877  44.072  0.00  0.00    +0.000 A 
ATOM      3  C   UNL     1      11.537  13.614  43.773  0.00  0.00    +0.000 A 
ATOM      4  C   UNL     1      13.650  14.702  44.411  0.00  0.00    +0.000 A 
ATOM      5  C   UNL     1      12.200  12.403  43.815  0.00  0.00    +0.000 A 
ATOM      6  C   UNL     1      14.218  13.437  44.424  0.00  0.00    +0.000 A 
ATOM      7  C   UNL     1      14.503  15.825  44.743  0.00  0.00    +0.000 A 
ATOM      8  O   UNL     1      13.543  12.263  44.131  0.00  0.00    +0.000 OA
ATOM      9  C   UNL     1      15.615  13.298  44.765  0.00  0.00    +0.000 A 
ATOM     10  C   UNL     1      15.844  15.666  45.070  0.00  0.00    +0.000 A 
ATOM     11  C   UNL     1      16.406  14.398  45.081  0.00  0.00    +0.000 A 
ENDROOT
BRANCH   3  12
ATOM     12  C   UNL     1      10.459  13.572  43.503  0.00  0.00    +0.000 A 
ATOM     13  C   UNL     1      10.067  13.471  42.153  0.00  0.00    +0.000 A 
ATOM     14  C   UNL     1       9.468  13.577  44.503  0.00  0.00    +0.000 A 
ATOM     15  C   UNL     1       8.718  13.379  41.818  0.00  0.00    +0.000 A 
ATOM     16  C   UNL     1       8.122  13.485  44.153  0.00  0.00    +0.000 A 
ATOM     17  C   UNL     1       7.740  13.384  42.817  0.00  0.00    +0.000 A 
BRANCH  17  18
ATOM     18  O   UNL     1       6.387  13.290  42.541  0.00  0.00    +0.000 OA
ATOM     19  C   UNL     1       5.454  12.541  43.354  0.00  0.00    +0.000 C 
ENDBRANCH  17  18
ENDBRANCH   3  12
BRANCH  11  20
ATOM     20  O   UNL     1      17.724  14.244  45.401  0.00  0.00    +0.000 OA
ATOM     21  H   UNL     1      17.811  13.823  46.275  0.00  0.00    +0.000 HD
ENDBRANCH  11  20
TORSDOF 3
ENDMDL
MODEL 8
REMARK VINA RESULT:    -5.781      1.573      7.133
REMARK INTER + INTRA:          -6.954
REMARK INTER:                  -6.608
REMARK INTRA:                  -0.345
REMARK UNBOUND:                -0.328
REMARK  Name = opt69.pdb
REMARK  4 active torsions:
REMARK  status: ('A' for Active; 'I' for Inactive)
REMARK    1  A    between atoms: C_3  and  C_5
REMARK    2  A    between atoms: C_16  and  O_18
REMARK    3  A    between atoms: C_17  and  O_19
REMARK    4  A    between atoms: O_19  and  C_20
REMARK                            x       y       z     vdW  Elec       q    Type
REMARK                         _______ _______ _______ _____ _____    ______ ____
ROOT
ATOM      1  O   UNL     1      12.118  15.896  44.197  0.00  0.00    +0.000 OA
ATOM      2  C   UNL     1      11.795  14.742  43.977  0.00  0.00    +0.000 A 
ATOM      3  C   UNL     1      12.753  13.626  43.905  0.00  0.00    +0.000 A 
ATOM      4  C   UNL     1      10.403  14.339  43.753  0.00  0.00    +0.000 A 
ATOM      5  C   UNL     1      12.331  12.335  43.651  0.00  0.00    +0.000 A 
ATOM      6  C   UNL     1      10.087  13.011  43.504  0.00  0.00    +0.000 A 
ATOM      7  C   UNL     1       9.315  15.294  43.776  0.00  0.00    +0.000 A 
ATOM      8  O   UNL     1      11.007  11.976  43.449  0.00  0.00    +0.000 OA
ATOM      9  C   UNL     1       8.707  12.647  43.284  0.00  0.00    +0.000 A 
ATOM     10  C   UNL     1       7.994  14.921  43.559  0.00  0.00    +0.000 A 
ATOM     11  C   UNL     1       7.686  13.591  43.312  0.00  0.00    +0.000 A 
ENDROOT
BRANCH   3  12
ATOM     12  C   UNL     1      13.848  13.763  44.047  0.00  0.00    +0.000 A 
ATOM     13  C   UNL     1      14.436  13.527  45.306  0.00  0.00    +0.000 A 
ATOM     14  C   UNL     1      14.672  14.134  42.967  0.00  0.00    +0.000 A 
ATOM     15  C   UNL     1      15.813  13.661  45.474  0.00  0.00    +0.000 A 
ATOM     16  C   UNL     1      16.047  14.265  43.151  0.00  0.00    +0.000 A 
ATOM     17  C   UNL     1      16.624  14.030  44.396  0.00  0.00    +0.000 A 
BRANCH  17  18
ATOM     18  O   UNL     1      17.995  14.172  44.507  0.00  0.00    +0.000 OA
ATOM     19  C   UNL     1      18.788  15.004  43.628  0.00  0.00    +0.000 C 
ENDBRANCH  17  18
ENDBRANCH   3  12
BRANCH  11  20
ATOM     20  O   UNL     1       6.388  13.225  43.100  0.00  0.00    +0.000 OA
ATOM     21  H   UNL     1       6.111  13.474  42.200  0.00  0.00    +0.000 HD
ENDBRANCH  11  20
TORSDOF 3
ENDMDL
MODEL 9
REMARK VINA RESULT:    -5.734      1.549      6.972
REMARK INTER + INTRA:          -6.900
REMARK INTER:                  -6.565
REMARK INTRA:                  -0.335
REMARK UNBOUND:                -0.328
REMARK  Name = opt69.pdb
REMARK  4 active torsions:
REMARK  status: ('A' for Active; 'I' for Inactive)
REMARK    1  A    between atoms: C_3  and  C_5
REMARK    2  A    between atoms: C_16  and  O_18
REMARK    3  A    between atoms: C_17  and  O_19
REMARK    4  A    between atoms: O_19  and  C_20
REMARK                            x       y       z     vdW  Elec       q    Type
REMARK                         _______ _______ _______ _____ _____    ______ ____
ROOT
ATOM      1  O   UNL     1      13.295  12.182  43.653  0.00  0.00    +0.000 OA
ATOM      2  C   UNL     1      12.815  13.284  43.850  0.00  0.00    +0.000 A 
ATOM      3  C   UNL     1      13.608  14.461  44.243  0.00  0.00    +0.000 A 
ATOM      4  C   UNL     1      11.380  13.558  43.721  0.00  0.00    +0.000 A 
ATOM      5  C   UNL     1      13.011  15.689  44.456  0.00  0.00    +0.000 A 
ATOM      6  C   UNL     1      10.883  14.830  43.959  0.00  0.00    +0.000 A 
ATOM      7  C   UNL     1      10.433  12.526  43.350  0.00  0.00    +0.000 A 
ATOM      8  O   UNL     1      11.652  15.925  44.321  0.00  0.00    +0.000 OA
ATOM      9  C   UNL     1       9.464  15.067  43.827  0.00  0.00    +0.000 A 
ATOM     10  C   UNL     1       9.072  12.776  43.231  0.00  0.00    +0.000 A 
ATOM     11  C   UNL     1       8.582  14.052  43.469  0.00  0.00    +0.000 A 
ENDROOT
BRANCH   3  12
ATOM     12  C   UNL     1      14.710  14.421  44.389  0.00  0.00    +0.000 A 
ATOM     13  C   UNL     1      15.249  14.119  45.656  0.00  0.00    +0.000 A 
ATOM     14  C   UNL     1      15.586  14.629  43.306  0.00  0.00    +0.000 A 
ATOM     15  C   UNL     1      16.629  14.030  45.829  0.00  0.00    +0.000 A 
ATOM     16  C   UNL     1      16.964  14.537  43.495  0.00  0.00    +0.000 A 
ATOM     17  C   UNL     1      17.492  14.238  44.749  0.00  0.00    +0.000 A 
BRANCH  17  18
ATOM     18  O   UNL     1      18.868  14.156  44.864  0.00  0.00    +0.000 OA
ATOM     19  C   UNL     1      19.787  14.676  43.875  0.00  0.00    +0.000 C 
ENDBRANCH  17  18
ENDBRANCH   3  12
BRANCH  11  20
ATOM     20  O   UNL     1       7.245  14.297  43.351  0.00  0.00    +0.000 OA
ATOM     21  H   UNL     1       7.023  14.519  42.428  0.00  0.00    +0.000 HD
ENDBRANCH  11  20
TORSDOF 3
ENDMDL
MODEL 10
REMARK VINA RESULT:    -5.702      1.319      2.231
REMARK INTER + INTRA:          -6.863
REMARK INTER:                  -6.545
REMARK INTRA:                  -0.318
REMARK UNBOUND:                -0.328
REMARK  Name = opt69.pdb
REMARK  4 active torsions:
REMARK  status: ('A' for Active; 'I' for Inactive)
REMARK    1  A    between atoms: C_3  and  C_5
REMARK    2  A    between atoms: C_16  and  O_18
REMARK    3  A    between atoms: C_17  and  O_19
REMARK    4  A    between atoms: O_19  and  C_20
REMARK                            x       y       z     vdW  Elec       q    Type
REMARK                         _______ _______ _______ _____ _____    ______ ____
ROOT
ATOM      1  O   UNL     1      11.476  16.059  44.110  0.00  0.00    +0.000 OA
ATOM      2  C   UNL     1      11.997  14.958  44.077  0.00  0.00    +0.000 A 
ATOM      3  C   UNL     1      11.269  13.721  43.744  0.00  0.00    +0.000 A 
ATOM      4  C   UNL     1      13.416  14.743  44.376  0.00  0.00    +0.000 A 
ATOM      5  C   UNL     1      11.909  12.497  43.723  0.00  0.00    +0.000 A 
ATOM      6  C   UNL     1      13.960  13.469  44.327  0.00  0.00    +0.000 A 
ATOM      7  C   UNL     1      14.298  15.836  44.733  0.00  0.00    +0.000 A 
ATOM      8  O   UNL     1      13.255  12.320  44.002  0.00  0.00    +0.000 OA
ATOM      9  C   UNL     1      15.361  13.290  44.630  0.00  0.00    +0.000 A 
ATOM     10  C   UNL     1      15.642  15.640  45.023  0.00  0.00    +0.000 A 
ATOM     11  C   UNL     1      16.180  14.362  44.971  0.00  0.00    +0.000 A 
ENDROOT
BRANCH   3  12
ATOM     12  C   UNL     1      10.184  13.710  43.497  0.00  0.00    +0.000 A 
ATOM     13  C   UNL     1       9.223  13.666  44.526  0.00  0.00    +0.000 A 
ATOM     14  C   UNL     1       9.750  13.783  42.160  0.00  0.00    +0.000 A 
ATOM     15  C   UNL     1       7.864  13.693  44.219  0.00  0.00    +0.000 A 
ATOM     16  C   UNL     1       8.388  13.808  41.869  0.00  0.00    +0.000 A 
ATOM     17  C   UNL     1       7.441  13.765  42.889  0.00  0.00    +0.000 A 
BRANCH  17  18
ATOM     18  O   UNL     1       6.106  13.799  42.529  0.00  0.00    +0.000 OA
ATOM     19  C   UNL     1       5.489  12.831  41.649  0.00  0.00    +0.000 C 
ENDBRANCH  17  18
ENDBRANCH   3  12
BRANCH  11  20
ATOM     20  O   UNL     1      17.501  14.171  45.255  0.00  0.00    +0.000 OA
ATOM     21  H   UNL     1      17.636  14.127  46.219  0.00  0.00    +0.000 HD
ENDBRANCH  11  20
TORSDOF 3
ENDMDL
MODEL 11
REMARK VINA RESULT:    -5.663      1.911      6.959
REMARK INTER + INTRA:          -6.818
REMARK INTER:                  -6.489
REMARK INTRA:                  -0.329
REMARK UNBOUND:                -0.328
REMARK  Name = opt69.pdb
REMARK  4 active torsions:
REMARK  status: ('A' for Active; 'I' for Inactive)
REMARK    1  A    between atoms: C_3  and  C_5
REMARK    2  A    between atoms: C_16  and  O_18
REMARK    3  A    between atoms: C_17  and  O_19
REMARK    4  A    between atoms: O_19  and  C_20
REMARK                            x       y       z     vdW  Elec       q    Type
REMARK                         _______ _______ _______ _____ _____    ______ ____
ROOT
ATOM      1  O   UNL     1      11.265  11.833  43.533  0.00  0.00    +0.000 OA
ATOM      2  C   UNL     1      10.919  12.989  43.699  0.00  0.00    +0.000 A 
ATOM      3  C   UNL     1      11.862  14.113  43.830  0.00  0.00    +0.000 A 
ATOM      4  C   UNL     1       9.512  13.388  43.796  0.00  0.00    +0.000 A 
ATOM      5  C   UNL     1      11.415  15.406  44.019  0.00  0.00    +0.000 A 
ATOM      6  C   UNL     1       9.170  14.719  43.988  0.00  0.00    +0.000 A 
ATOM      7  C   UNL     1       8.433  12.426  43.699  0.00  0.00    +0.000 A 
ATOM      8  O   UNL     1      10.077  15.760  44.100  0.00  0.00    +0.000 OA
ATOM      9  C   UNL     1       7.774  15.079  44.082  0.00  0.00    +0.000 A 
ATOM     10  C   UNL     1       7.097  12.796  43.794  0.00  0.00    +0.000 A 
ATOM     11  C   UNL     1       6.763  14.129  43.986  0.00  0.00    +0.000 A 
ENDROOT
BRANCH   3  12
ATOM     12  C   UNL     1      12.966  13.979  43.785  0.00  0.00    +0.000 A 
ATOM     13  C   UNL     1      13.662  14.215  42.582  0.00  0.00    +0.000 A 
ATOM     14  C   UNL     1      13.693  13.614  44.934  0.00  0.00    +0.000 A 
ATOM     15  C   UNL     1      15.048  14.086  42.536  0.00  0.00    +0.000 A 
ATOM     16  C   UNL     1      15.080  13.488  44.872  0.00  0.00    +0.000 A 
ATOM     17  C   UNL     1      15.763  13.723  43.681  0.00  0.00    +0.000 A 
BRANCH  17  18
ATOM     18  O   UNL     1      17.140  13.585  43.692  0.00  0.00    +0.000 OA
ATOM     19  C   UNL     1      18.044  14.623  44.138  0.00  0.00    +0.000 C 
ENDBRANCH  17  18
ENDBRANCH   3  12
BRANCH  11  20
ATOM     20  O   UNL     1       5.450  14.491  44.079  0.00  0.00    +0.000 OA
ATOM     21  H   UNL     1       4.940  13.795  44.533  0.00  0.00    +0.000 HD
ENDBRANCH  11  20
TORSDOF 3
ENDMDL
MODEL 12
REMARK VINA RESULT:    -5.598      1.081      2.339
REMARK INTER + INTRA:          -6.745
REMARK INTER:                  -6.496
REMARK INTRA:                  -0.249
REMARK UNBOUND:                -0.328
REMARK  Name = opt69.pdb
REMARK  4 active torsions:
REMARK  status: ('A' for Active; 'I' for Inactive)
REMARK    1  A    between atoms: C_3  and  C_5
REMARK    2  A    between atoms: C_16  and  O_18
REMARK    3  A    between atoms: C_17  and  O_19
REMARK    4  A    between atoms: O_19  and  C_20
REMARK                            x       y       z     vdW  Elec       q    Type
REMARK                         _______ _______ _______ _____ _____    ______ ____
ROOT
ATOM      1  O   UNL     1      12.504  16.193  43.454  0.00  0.00    +0.000 OA
ATOM      2  C   UNL     1      13.225  15.350  43.957  0.00  0.00    +0.000 A 
ATOM      3  C   UNL     1      12.840  13.938  44.120  0.00  0.00    +0.000 A 
ATOM      4  C   UNL     1      14.566  15.657  44.466  0.00  0.00    +0.000 A 
ATOM      5  C   UNL     1      13.698  13.023  44.700  0.00  0.00    +0.000 A 
ATOM      6  C   UNL     1      15.347  14.661  45.032  0.00  0.00    +0.000 A 
ATOM      7  C   UNL     1      15.123  16.993  44.403  0.00  0.00    +0.000 A 
ATOM      8  O   UNL     1      14.965  13.336  45.167  0.00  0.00    +0.000 OA
ATOM      9  C   UNL     1      16.663  14.996  45.527  0.00  0.00    +0.000 A 
ATOM     10  C   UNL     1      16.390  17.292  44.888  0.00  0.00    +0.000 A 
ATOM     11  C   UNL     1      17.167  16.290  45.452  0.00  0.00    +0.000 A 
ENDROOT
BRANCH   3  12
ATOM     12  C   UNL     1      11.853  13.543  43.791  0.00  0.00    +0.000 A 
ATOM     13  C   UNL     1      11.762  12.718  42.652  0.00  0.00    +0.000 A 
ATOM     14  C   UNL     1      10.686  13.822  44.527  0.00  0.00    +0.000 A 
ATOM     15  C   UNL     1      10.532  12.191  42.263  0.00  0.00    +0.000 A 
ATOM     16  C   UNL     1       9.463  13.288  44.126  0.00  0.00    +0.000 A 
ATOM     17  C   UNL     1       9.378  12.473  43.000  0.00  0.00    +0.000 A 
BRANCH  17  18
ATOM     18  O   UNL     1       8.133  11.972  42.661  0.00  0.00    +0.000 OA
ATOM     19  C   UNL     1       7.123  12.739  41.966  0.00  0.00    +0.000 C 
ENDBRANCH  17  18
ENDBRANCH   3  12
BRANCH  11  20
ATOM     20  O   UNL     1      18.412  16.585  45.927  0.00  0.00    +0.000 OA
ATOM     21  H   UNL     1      18.958  15.779  45.964  0.00  0.00    +0.000 HD
ENDBRANCH  11  20
TORSDOF 3
ENDMDL
MODEL 13
REMARK VINA RESULT:    -5.525      1.586      7.119
REMARK INTER + INTRA:          -6.661
REMARK INTER:                  -6.324
REMARK INTRA:                  -0.337
REMARK UNBOUND:                -0.328
REMARK  Name = opt69.pdb
REMARK  4 active torsions:
REMARK  status: ('A' for Active; 'I' for Inactive)
REMARK    1  A    between atoms: C_3  and  C_5
REMARK    2  A    between atoms: C_16  and  O_18
REMARK    3  A    between atoms: C_17  and  O_19
REMARK    4  A    between atoms: O_19  and  C_20
REMARK                            x       y       z     vdW  Elec       q    Type
REMARK                         _______ _______ _______ _____ _____    ______ ____
ROOT
ATOM      1  O   UNL     1      13.579  12.191  43.735  0.00  0.00    +0.000 OA
ATOM      2  C   UNL     1      13.115  13.308  43.884  0.00  0.00    +0.000 A 
ATOM      3  C   UNL     1      13.932  14.499  44.173  0.00  0.00    +0.000 A 
ATOM      4  C   UNL     1      11.678  13.587  43.798  0.00  0.00    +0.000 A 
ATOM      5  C   UNL     1      13.353  15.743  44.334  0.00  0.00    +0.000 A 
ATOM      6  C   UNL     1      11.200  14.876  43.977  0.00  0.00    +0.000 A 
ATOM      7  C   UNL     1      10.709  12.544  43.528  0.00  0.00    +0.000 A 
ATOM      8  O   UNL     1      11.991  15.983  44.241  0.00  0.00    +0.000 OA
ATOM      9  C   UNL     1       9.779  15.118  43.889  0.00  0.00    +0.000 A 
ATOM     10  C   UNL     1       9.346  12.800  43.450  0.00  0.00    +0.000 A 
ATOM     11  C   UNL     1       8.875  14.092  43.630  0.00  0.00    +0.000 A 
ENDROOT
BRANCH   3  12
ATOM     12  C   UNL     1      15.039  14.457  44.276  0.00  0.00    +0.000 A 
ATOM     13  C   UNL     1      15.863  14.562  43.137  0.00  0.00    +0.000 A 
ATOM     14  C   UNL     1      15.639  14.343  45.544  0.00  0.00    +0.000 A 
ATOM     15  C   UNL     1      17.250  14.550  43.270  0.00  0.00    +0.000 A 
ATOM     16  C   UNL     1      17.028  14.331  45.661  0.00  0.00    +0.000 A 
ATOM     17  C   UNL     1      17.838  14.435  44.533  0.00  0.00    +0.000 A 
BRANCH  17  18
ATOM     18  O   UNL     1      19.208  14.423  44.722  0.00  0.00    +0.000 OA
ATOM     19  C   UNL     1      19.999  15.618  44.925  0.00  0.00    +0.000 C 
ENDBRANCH  17  18
ENDBRANCH   3  12
BRANCH  11  20
ATOM     20  O   UNL     1       7.536  14.342  43.552  0.00  0.00    +0.000 OA
ATOM     21  H   UNL     1       7.030  13.540  43.775  0.00  0.00    +0.000 HD
ENDBRANCH  11  20
TORSDOF 3
ENDMDL
MODEL 14
REMARK VINA RESULT:    -5.346      3.106      4.425
REMARK INTER + INTRA:          -6.456
REMARK INTER:                  -6.147
REMARK INTRA:                  -0.308
REMARK UNBOUND:                -0.328
REMARK  Name = opt69.pdb
REMARK  4 active torsions:
REMARK  status: ('A' for Active; 'I' for Inactive)
REMARK    1  A    between atoms: C_3  and  C_5
REMARK    2  A    between atoms: C_16  and  O_18
REMARK    3  A    between atoms: C_17  and  O_19
REMARK    4  A    between atoms: O_19  and  C_20
REMARK                            x       y       z     vdW  Elec       q    Type
REMARK                         _______ _______ _______ _____ _____    ______ ____
ROOT
ATOM      1  O   UNL     1      11.602  15.843  43.624  0.00  0.00    +0.000 OA
ATOM      2  C   UNL     1      11.351  14.689  43.325  0.00  0.00    +0.000 A 
ATOM      3  C   UNL     1      10.129  14.278  42.613  0.00  0.00    +0.000 A 
ATOM      4  C   UNL     1      12.245  13.574  43.652  0.00  0.00    +0.000 A 
ATOM      5  C   UNL     1       9.893  12.953  42.300  0.00  0.00    +0.000 A 
ATOM      6  C   UNL     1      11.912  12.277  43.291  0.00  0.00    +0.000 A 
ATOM      7  C   UNL     1      13.494  13.774  44.357  0.00  0.00    +0.000 A 
ATOM      8  O   UNL     1      10.758  11.916  42.614  0.00  0.00    +0.000 OA
ATOM      9  C   UNL     1      12.813  11.199  43.630  0.00  0.00    +0.000 A 
ATOM     10  C   UNL     1      14.344  12.722  44.675  0.00  0.00    +0.000 A 
ATOM     11  C   UNL     1      14.005  11.427  44.310  0.00  0.00    +0.000 A 
ENDROOT
BRANCH   3  12
ATOM     12  C   UNL     1       9.345  15.002  42.298  0.00  0.00    +0.000 A 
ATOM     13  C   UNL     1       8.386  15.458  43.224  0.00  0.00    +0.000 A 
ATOM     14  C   UNL     1       9.321  15.508  40.984  0.00  0.00    +0.000 A 
ATOM     15  C   UNL     1       7.429  16.395  42.839  0.00  0.00    +0.000 A 
ATOM     16  C   UNL     1       8.357  16.444  40.614  0.00  0.00    +0.000 A 
ATOM     17  C   UNL     1       7.412  16.892  41.533  0.00  0.00    +0.000 A 
BRANCH  17  18
ATOM     18  O   UNL     1       6.487  17.827  41.101  0.00  0.00    +0.000 OA
ATOM     19  C   UNL     1       6.647  18.614  39.898  0.00  0.00    +0.000 C 
ENDBRANCH  17  18
ENDBRANCH   3  12
BRANCH  11  20
ATOM     20  O   UNL     1      14.841  10.395  44.622  0.00  0.00    +0.000 OA
ATOM     21  H   UNL     1      15.211  10.519  45.515  0.00  0.00    +0.000 HD
ENDBRANCH  11  20
TORSDOF 3
ENDMDL
MODEL 15
REMARK VINA RESULT:    -5.260      1.507      2.531
REMARK INTER + INTRA:          -6.357
REMARK INTER:                  -6.013
REMARK INTRA:                  -0.344
REMARK UNBOUND:                -0.328
REMARK  Name = opt69.pdb
REMARK  4 active torsions:
REMARK  status: ('A' for Active; 'I' for Inactive)
REMARK    1  A    between atoms: C_3  and  C_5
REMARK    2  A    between atoms: C_16  and  O_18
REMARK    3  A    between atoms: C_17  and  O_19
REMARK    4  A    between atoms: O_19  and  C_20
REMARK                            x       y       z     vdW  Elec       q    Type
REMARK                         _______ _______ _______ _____ _____    ______ ____
ROOT
ATOM      1  O   UNL     1      12.254  15.697  42.457  0.00  0.00    +0.000 OA
ATOM      2  C   UNL     1      12.880  14.769  42.936  0.00  0.00    +0.000 A 
ATOM      3  C   UNL     1      12.250  13.548  43.468  0.00  0.00    +0.000 A 
ATOM      4  C   UNL     1      14.343  14.770  43.041  0.00  0.00    +0.000 A 
ATOM      5  C   UNL     1      13.009  12.525  44.002  0.00  0.00    +0.000 A 
ATOM      6  C   UNL     1      15.008  13.687  43.597  0.00  0.00    +0.000 A 
ATOM      7  C   UNL     1      15.144  15.885  42.579  0.00  0.00    +0.000 A 
ATOM      8  O   UNL     1      14.392  12.546  44.085  0.00  0.00    +0.000 OA
ATOM      9  C   UNL     1      16.450  13.720  43.689  0.00  0.00    +0.000 A 
ATOM     10  C   UNL     1      16.530  15.895  42.680  0.00  0.00    +0.000 A 
ATOM     11  C   UNL     1      17.189  14.809  43.236  0.00  0.00    +0.000 A 
ENDROOT
BRANCH   3  12
ATOM     12  C   UNL     1      11.149  13.392  43.468  0.00  0.00    +0.000 A 
ATOM     13  C   UNL     1      10.532  12.677  42.422  0.00  0.00    +0.000 A 
ATOM     14  C   UNL     1      10.356  13.867  44.530  0.00  0.00    +0.000 A 
ATOM     15  C   UNL     1       9.158  12.447  42.443  0.00  0.00    +0.000 A 
ATOM     16  C   UNL     1       8.982  13.630  44.536  0.00  0.00    +0.000 A 
ATOM     17  C   UNL     1       8.378  12.922  43.501  0.00  0.00    +0.000 A 
BRANCH  17  18
ATOM     18  O   UNL     1       7.012  12.718  43.573  0.00  0.00    +0.000 OA
ATOM     19  C   UNL     1       6.340  11.580  42.985  0.00  0.00    +0.000 C 
ENDBRANCH  17  18
ENDBRANCH   3  12
BRANCH  11  20
ATOM     20  O   UNL     1      18.550  14.820  43.334  0.00  0.00    +0.000 OA
ATOM     21  H   UNL     1      18.826  14.555  44.231  0.00  0.00    +0.000 HD
ENDBRANCH  11  20
TORSDOF 3
ENDMDL
MODEL 16
REMARK VINA RESULT:    -5.227      1.979      2.298
REMARK INTER + INTRA:          -6.319
REMARK INTER:                  -5.991
REMARK INTRA:                  -0.329
REMARK UNBOUND:                -0.328
REMARK  Name = opt69.pdb
REMARK  4 active torsions:
REMARK  status: ('A' for Active; 'I' for Inactive)
REMARK    1  A    between atoms: C_3  and  C_5
REMARK    2  A    between atoms: C_16  and  O_18
REMARK    3  A    between atoms: C_17  and  O_19
REMARK    4  A    between atoms: O_19  and  C_20
REMARK                            x       y       z     vdW  Elec       q    Type
REMARK                         _______ _______ _______ _____ _____    ______ ____
ROOT
ATOM      1  O   UNL     1      11.841  13.487  44.771  0.00  0.00    +0.000 OA
ATOM      2  C   UNL     1      12.562  14.285  44.198  0.00  0.00    +0.000 A 
ATOM      3  C   UNL     1      12.077  15.248  43.194  0.00  0.00    +0.000 A 
ATOM      4  C   UNL     1      14.005  14.367  44.444  0.00  0.00    +0.000 A 
ATOM      5  C   UNL     1      12.939  16.130  42.572  0.00  0.00    +0.000 A 
ATOM      6  C   UNL     1      14.782  15.292  43.762  0.00  0.00    +0.000 A 
ATOM      7  C   UNL     1      14.672  13.498  45.391  0.00  0.00    +0.000 A 
ATOM      8  O   UNL     1      14.300  16.194  42.827  0.00  0.00    +0.000 OA
ATOM      9  C   UNL     1      16.202  15.347  44.024  0.00  0.00    +0.000 A 
ATOM     10  C   UNL     1      16.040  13.567  45.625  0.00  0.00    +0.000 A 
ATOM     11  C   UNL     1      16.811  14.495  44.941  0.00  0.00    +0.000 A 
ENDROOT
BRANCH   3  12
ATOM     12  C   UNL     1      11.008  15.311  42.889  0.00  0.00    +0.000 A 
ATOM     13  C   UNL     1      10.536  14.557  41.797  0.00  0.00    +0.000 A 
ATOM     14  C   UNL     1      10.101  16.109  43.612  0.00  0.00    +0.000 A 
ATOM     15  C   UNL     1       9.189  14.605  41.440  0.00  0.00    +0.000 A 
ATOM     16  C   UNL     1       8.758  16.148  43.242  0.00  0.00    +0.000 A 
ATOM     17  C   UNL     1       8.295  15.400  42.163  0.00  0.00    +0.000 A 
BRANCH  17  18
ATOM     18  O   UNL     1       6.949  15.481  41.854  0.00  0.00    +0.000 OA
ATOM     19  C   UNL     1       6.338  14.783  40.744  0.00  0.00    +0.000 C 
ENDBRANCH  17  18
ENDBRANCH   3  12
BRANCH  11  20
ATOM     20  O   UNL     1      18.154  14.563  45.172  0.00  0.00    +0.000 OA
ATOM     21  H   UNL     1      18.412  15.474  45.401  0.00  0.00    +0.000 HD
ENDBRANCH  11  20
TORSDOF 3
ENDMDL
MODEL 17
REMARK VINA RESULT:    -5.223      2.781      8.276
REMARK INTER + INTRA:          -6.315
REMARK INTER:                  -5.967
REMARK INTRA:                  -0.348
REMARK UNBOUND:                -0.328
REMARK  Name = opt69.pdb
REMARK  4 active torsions:
REMARK  status: ('A' for Active; 'I' for Inactive)
REMARK    1  A    between atoms: C_3  and  C_5
REMARK    2  A    between atoms: C_16  and  O_18
REMARK    3  A    between atoms: C_17  and  O_19
REMARK    4  A    between atoms: O_19  and  C_20
REMARK                            x       y       z     vdW  Elec       q    Type
REMARK                         _______ _______ _______ _____ _____    ______ ____
ROOT
ATOM      1  O   UNL     1      14.977  17.098  44.228  0.00  0.00    +0.000 OA
ATOM      2  C   UNL     1      15.335  16.013  44.651  0.00  0.00    +0.000 A 
ATOM      3  C   UNL     1      16.559  15.811  45.445  0.00  0.00    +0.000 A 
ATOM      4  C   UNL     1      14.581  14.779  44.408  0.00  0.00    +0.000 A 
ATOM      5  C   UNL     1      16.920  14.557  45.899  0.00  0.00    +0.000 A 
ATOM      6  C   UNL     1      15.033  13.568  44.911  0.00  0.00    +0.000 A 
ATOM      7  C   UNL     1      13.352  14.770  43.641  0.00  0.00    +0.000 A 
ATOM      8  O   UNL     1      16.186  13.405  45.662  0.00  0.00    +0.000 OA
ATOM      9  C   UNL     1      14.270  12.370  44.651  0.00  0.00    +0.000 A 
ATOM     10  C   UNL     1      12.635  13.605  43.402  0.00  0.00    +0.000 A 
ATOM     11  C   UNL     1      13.093  12.397  43.908  0.00  0.00    +0.000 A 
ENDROOT
BRANCH   3  12
ATOM     12  C   UNL     1      17.246  16.644  45.713  0.00  0.00    +0.000 A 
ATOM     13  C   UNL     1      17.025  17.399  46.882  0.00  0.00    +0.000 A 
ATOM     14  C   UNL     1      18.369  16.934  44.916  0.00  0.00    +0.000 A 
ATOM     15  C   UNL     1      17.907  18.417  47.239  0.00  0.00    +0.000 A 
ATOM     16  C   UNL     1      19.243  17.956  45.285  0.00  0.00    +0.000 A 
ATOM     17  C   UNL     1      19.020  18.698  46.441  0.00  0.00    +0.000 A 
BRANCH  17  18
ATOM     18  O   UNL     1      19.930  19.694  46.751  0.00  0.00    +0.000 OA
ATOM     19  C   UNL     1      19.704  20.696  47.770  0.00  0.00    +0.000 C 
ENDBRANCH  17  18
ENDBRANCH   3  12
BRANCH  11  20
ATOM     20  O   UNL     1      12.388  11.253  43.673  0.00  0.00    +0.000 OA
ATOM     21  H   UNL     1      12.920  10.631  43.144  0.00  0.00    +0.000 HD
ENDBRANCH  11  20
TORSDOF 3
ENDMDL
MODEL 18
REMARK VINA RESULT:    -4.886      1.651      7.541
REMARK INTER + INTRA:          -5.928
REMARK INTER:                  -5.600
REMARK INTRA:                  -0.328
REMARK UNBOUND:                -0.328
REMARK  Name = opt69.pdb
REMARK  4 active torsions:
REMARK  status: ('A' for Active; 'I' for Inactive)
REMARK    1  A    between atoms: C_3  and  C_5
REMARK    2  A    between atoms: C_16  and  O_18
REMARK    3  A    between atoms: C_17  and  O_19
REMARK    4  A    between atoms: O_19  and  C_20
REMARK                            x       y       z     vdW  Elec       q    Type
REMARK                         _______ _______ _______ _____ _____    ______ ____
ROOT
ATOM      1  O   UNL     1      13.287  16.132  44.625  0.00  0.00    +0.000 OA
ATOM      2  C   UNL     1      13.449  15.044  44.102  0.00  0.00    +0.000 A 
ATOM      3  C   UNL     1      14.773  14.477  43.792  0.00  0.00    +0.000 A 
ATOM      4  C   UNL     1      12.332  14.177  43.714  0.00  0.00    +0.000 A 
ATOM      5  C   UNL     1      14.900  13.237  43.196  0.00  0.00    +0.000 A 
ATOM      6  C   UNL     1      12.571  12.948  43.119  0.00  0.00    +0.000 A 
ATOM      7  C   UNL     1      10.952  14.562  43.930  0.00  0.00    +0.000 A 
ATOM      8  O   UNL     1      13.828  12.432  42.844  0.00  0.00    +0.000 OA
ATOM      9  C   UNL     1      11.449  12.118  42.746  0.00  0.00    +0.000 A 
ATOM     10  C   UNL     1       9.889  13.748  43.560  0.00  0.00    +0.000 A 
ATOM     11  C   UNL     1      10.135  12.519  42.966  0.00  0.00    +0.000 A 
ENDROOT
BRANCH   3  12
ATOM     12  C   UNL     1      15.723  15.011  44.018  0.00  0.00    +0.000 A 
ATOM     13  C   UNL     1      16.283  15.895  43.074  0.00  0.00    +0.000 A 
ATOM     14  C   UNL     1      16.361  14.848  45.262  0.00  0.00    +0.000 A 
ATOM     15  C   UNL     1      17.451  16.593  43.372  0.00  0.00    +0.000 A 
ATOM     16  C   UNL     1      17.529  15.553  45.546  0.00  0.00    +0.000 A 
ATOM     17  C   UNL     1      18.078  16.426  44.610  0.00  0.00    +0.000 A 
BRANCH  17  18
ATOM     18  O   UNL     1      19.236  17.098  44.959  0.00  0.00    +0.000 OA
ATOM     19  C   UNL     1      20.449  16.435  45.386  0.00  0.00    +0.000 C 
ENDBRANCH  17  18
ENDBRANCH   3  12
BRANCH  11  20
ATOM     20  O   UNL     1       9.089  11.720  42.604  0.00  0.00    +0.000 OA
ATOM     21  H   UNL     1       8.914  11.060  43.299  0.00  0.00    +0.000 HD
ENDBRANCH  11  20
TORSDOF 3
ENDMDL
MODEL 19
REMARK VINA RESULT:    -4.783      2.040      3.215
REMARK INTER + INTRA:          -5.810
REMARK INTER:                  -5.456
REMARK INTRA:                  -0.354
REMARK UNBOUND:                -0.328
REMARK  Name = opt69.pdb
REMARK  4 active torsions:
REMARK  status: ('A' for Active; 'I' for Inactive)
REMARK    1  A    between atoms: C_3  and  C_5
REMARK    2  A    between atoms: C_16  and  O_18
REMARK    3  A    between atoms: C_17  and  O_19
REMARK    4  A    between atoms: O_19  and  C_20
REMARK                            x       y       z     vdW  Elec       q    Type
REMARK                         _______ _______ _______ _____ _____    ______ ____
ROOT
ATOM      1  O   UNL     1      14.316  16.076  42.086  0.00  0.00    +0.000 OA
ATOM      2  C   UNL     1      14.852  15.283  42.839  0.00  0.00    +0.000 A 
ATOM      3  C   UNL     1      14.123  14.236  43.576  0.00  0.00    +0.000 A 
ATOM      4  C   UNL     1      16.295  15.290  43.101  0.00  0.00    +0.000 A 
ATOM      5  C   UNL     1      14.781  13.363  44.420  0.00  0.00    +0.000 A 
ATOM      6  C   UNL     1      16.856  14.366  43.970  0.00  0.00    +0.000 A 
ATOM      7  C   UNL     1      17.183  16.249  42.476  0.00  0.00    +0.000 A 
ATOM      8  O   UNL     1      16.149  13.385  44.646  0.00  0.00    +0.000 OA
ATOM      9  C   UNL     1      18.280  14.401  44.209  0.00  0.00    +0.000 A 
ATOM     10  C   UNL     1      18.550  16.265  42.723  0.00  0.00    +0.000 A 
ATOM     11  C   UNL     1      19.105  15.337  43.592  0.00  0.00    +0.000 A 
ENDROOT
BRANCH   3  12
ATOM     12  C   UNL     1      13.022  14.100  43.493  0.00  0.00    +0.000 A 
ATOM     13  C   UNL     1      12.485  13.228  42.525  0.00  0.00    +0.000 A 
ATOM     14  C   UNL     1      12.147  14.759  44.377  0.00  0.00    +0.000 A 
ATOM     15  C   UNL     1      11.109  13.026  42.447  0.00  0.00    +0.000 A 
ATOM     16  C   UNL     1      10.772  14.548  44.286  0.00  0.00    +0.000 A 
ATOM     17  C   UNL     1      10.247  13.685  43.328  0.00  0.00    +0.000 A 
BRANCH  17  18
ATOM     18  O   UNL     1       8.874  13.517  43.297  0.00  0.00    +0.000 OA
ATOM     19  C   UNL     1       8.047  13.459  44.483  0.00  0.00    +0.000 C 
ENDBRANCH  17  18
ENDBRANCH   3  12
BRANCH  11  20
ATOM     20  O   UNL     1      20.448  15.353  43.833  0.00  0.00    +0.000 OA
ATOM     21  H   UNL     1      20.893  15.965  43.219  0.00  0.00    +0.000 HD
ENDBRANCH  11  20
TORSDOF 3
ENDMDL
