MODEL 1
REMARK VINA RESULT:    -6.235      0.000      0.000
REMARK INTER + INTRA:          -9.046
REMARK INTER:                  -8.422
REMARK INTRA:                  -0.624
REMARK UNBOUND:                -0.624
REMARK  Name = opt43.pdb
REMARK  10 active torsions:
REMARK  status: ('A' for Active; 'I' for Inactive)
REMARK    1  A    between atoms: O_1  and  C_2
REMARK    2  A    between atoms: O_1  and  C_3
REMARK    3  A    between atoms: C_4  and  O_6
REMARK    4  A    between atoms: O_6  and  C_9
REMARK    5  A    between atoms: C_11  and  C_14
REMARK    6  A    between atoms: C_14  and  C_16
REMARK    7  A    between atoms: C_19  and  O_21
REMARK    8  A    between atoms: O_21  and  C_23
REMARK    9  A    between atoms: C_22  and  O_24
REMARK   10  A    between atoms: O_24  and  C_25
REMARK                            x       y       z     vdW  Elec       q    Type
REMARK                         _______ _______ _______ _____ _____    ______ ____
ROOT
ATOM      1  C   UNL     1      15.676  16.472  44.543  0.00  0.00    +0.000 A 
ATOM      2  C   UNL     1      16.764  15.599  44.342  0.00  0.00    +0.000 A 
ATOM      3  C   UNL     1      14.382  15.941  44.663  0.00  0.00    +0.000 A 
ATOM      4  C   UNL     1      16.535  14.229  44.260  0.00  0.00    +0.000 A 
ATOM      5  C   UNL     1      14.156  14.561  44.580  0.00  0.00    +0.000 A 
ATOM      6  C   UNL     1      15.250  13.711  44.377  0.00  0.00    +0.000 A 
ATOM      7  C   UNL     1      12.875  13.982  44.670  0.00  0.00    +0.000 A 
ATOM      8  C   UNL     1      15.042  12.337  44.273  0.00  0.00    +0.000 A 
ATOM      9  N   UNL     1      12.680  12.643  44.583  0.00  0.00    +0.000 NA
ATOM     10  C   UNL     1      13.748  11.843  44.390  0.00  0.00    +0.000 A 
ENDROOT
BRANCH   2  11
ATOM     11  O   UNL     1      18.093  15.984  44.197  0.00  0.00    +0.000 OA
ATOM     12  C   UNL     1      19.251  15.169  44.493  0.00  0.00    +0.000 C 
ENDBRANCH   2  11
BRANCH   1  13
ATOM     13  O   UNL     1      15.886  17.845  44.584  0.00  0.00    +0.000 OA
ATOM     14  C   UNL     1      15.844  18.660  45.777  0.00  0.00    +0.000 C 
ENDBRANCH   1  13
BRANCH   7  15
ATOM     15  C   UNL     1      11.576  14.786  44.741  0.00  0.00    +0.000 C 
BRANCH  15  16
ATOM     16  C   UNL     1      10.514  14.180  43.830  0.00  0.00    +0.000 A 
ATOM     17  C   UNL     1       9.373  13.603  44.391  0.00  0.00    +0.000 A 
ATOM     18  C   UNL     1      10.679  14.162  42.447  0.00  0.00    +0.000 A 
ATOM     19  C   UNL     1       8.411  12.968  43.590  0.00  0.00    +0.000 A 
ATOM     20  C   UNL     1       9.721  13.555  41.640  0.00  0.00    +0.000 A 
ATOM     21  C   UNL     1       8.598  12.941  42.194  0.00  0.00    +0.000 A 
BRANCH  21  22
ATOM     22  O   UNL     1       7.738  12.334  41.287  0.00  0.00    +0.000 OA
ATOM     23  C   UNL     1       6.560  12.951  40.715  0.00  0.00    +0.000 C 
ENDBRANCH  21  22
BRANCH  19  24
ATOM     24  O   UNL     1       7.301  12.368  44.174  0.00  0.00    +0.000 OA
ATOM     25  C   UNL     1       6.028  13.027  44.372  0.00  0.00    +0.000 C 
ENDBRANCH  19  24
ENDBRANCH  15  16
ENDBRANCH   7  15
TORSDOF 6
ENDMDL
MODEL 2
REMARK VINA RESULT:    -6.167      1.904      8.131
REMARK INTER + INTRA:          -8.955
REMARK INTER:                  -8.255
REMARK INTRA:                  -0.699
REMARK UNBOUND:                -0.624
REMARK  Name = opt43.pdb
REMARK  10 active torsions:
REMARK  status: ('A' for Active; 'I' for Inactive)
REMARK    1  A    between atoms: O_1  and  C_2
REMARK    2  A    between atoms: O_1  and  C_3
REMARK    3  A    between atoms: C_4  and  O_6
REMARK    4  A    between atoms: O_6  and  C_9
REMARK    5  A    between atoms: C_11  and  C_14
REMARK    6  A    between atoms: C_14  and  C_16
REMARK    7  A    between atoms: C_19  and  O_21
REMARK    8  A    between atoms: O_21  and  C_23
REMARK    9  A    between atoms: C_22  and  O_24
REMARK   10  A    between atoms: O_24  and  C_25
REMARK                            x       y       z     vdW  Elec       q    Type
REMARK                         _______ _______ _______ _____ _____    ______ ____
ROOT
ATOM      1  C   UNL     1       8.433  12.790  42.966  0.00  0.00    +0.000 A 
ATOM      2  C   UNL     1       7.777  14.002  42.676  0.00  0.00    +0.000 A 
ATOM      3  C   UNL     1       9.709  12.822  43.551  0.00  0.00    +0.000 A 
ATOM      4  C   UNL     1       8.408  15.208  42.966  0.00  0.00    +0.000 A 
ATOM      5  C   UNL     1      10.341  14.038  43.841  0.00  0.00    +0.000 A 
ATOM      6  C   UNL     1       9.674  15.232  43.542  0.00  0.00    +0.000 A 
ATOM      7  C   UNL     1      11.629  14.124  44.406  0.00  0.00    +0.000 A 
ATOM      8  C   UNL     1      10.294  16.451  43.808  0.00  0.00    +0.000 A 
ATOM      9  N   UNL     1      12.223  15.312  44.674  0.00  0.00    +0.000 NA
ATOM     10  C   UNL     1      11.560  16.450  44.380  0.00  0.00    +0.000 A 
ENDROOT
BRANCH   2  11
ATOM     11  O   UNL     1       6.520  14.121  42.091  0.00  0.00    +0.000 OA
ATOM     12  C   UNL     1       6.233  14.074  40.674  0.00  0.00    +0.000 C 
ENDBRANCH   2  11
BRANCH   1  13
ATOM     13  O   UNL     1       7.832  11.580  42.642  0.00  0.00    +0.000 OA
ATOM     14  C   UNL     1       6.715  10.989  43.344  0.00  0.00    +0.000 C 
ENDBRANCH   1  13
BRANCH   7  15
ATOM     15  C   UNL     1      12.538  12.918  44.648  0.00  0.00    +0.000 C 
BRANCH  15  16
ATOM     16  C   UNL     1      13.897  13.124  43.989  0.00  0.00    +0.000 A 
ATOM     17  C   UNL     1      15.008  13.426  44.780  0.00  0.00    +0.000 A 
ATOM     18  C   UNL     1      14.045  13.047  42.607  0.00  0.00    +0.000 A 
ATOM     19  C   UNL     1      16.259  13.697  44.205  0.00  0.00    +0.000 A 
ATOM     20  C   UNL     1      15.285  13.293  42.024  0.00  0.00    +0.000 A 
ATOM     21  C   UNL     1      16.391  13.635  42.803  0.00  0.00    +0.000 A 
BRANCH  21  22
ATOM     22  O   UNL     1      17.561  13.896  42.101  0.00  0.00    +0.000 OA
ATOM     23  C   UNL     1      17.639  14.163  40.681  0.00  0.00    +0.000 C 
ENDBRANCH  21  22
BRANCH  19  24
ATOM     24  O   UNL     1      17.341  14.033  45.009  0.00  0.00    +0.000 OA
ATOM     25  C   UNL     1      17.789  15.389  45.247  0.00  0.00    +0.000 C 
ENDBRANCH  19  24
ENDBRANCH  15  16
ENDBRANCH   7  15
TORSDOF 6
ENDMDL
MODEL 3
REMARK VINA RESULT:    -5.846      1.938      8.306
REMARK INTER + INTRA:          -8.521
REMARK INTER:                  -8.137
REMARK INTRA:                  -0.384
REMARK UNBOUND:                -0.624
REMARK  Name = opt43.pdb
REMARK  10 active torsions:
REMARK  status: ('A' for Active; 'I' for Inactive)
REMARK    1  A    between atoms: O_1  and  C_2
REMARK    2  A    between atoms: O_1  and  C_3
REMARK    3  A    between atoms: C_4  and  O_6
REMARK    4  A    between atoms: O_6  and  C_9
REMARK    5  A    between atoms: C_11  and  C_14
REMARK    6  A    between atoms: C_14  and  C_16
REMARK    7  A    between atoms: C_19  and  O_21
REMARK    8  A    between atoms: O_21  and  C_23
REMARK    9  A    between atoms: C_22  and  O_24
REMARK   10  A    between atoms: O_24  and  C_25
REMARK                            x       y       z     vdW  Elec       q    Type
REMARK                         _______ _______ _______ _____ _____    ______ ____
ROOT
ATOM      1  C   UNL     1       8.662  12.809  42.959  0.00  0.00    +0.000 A 
ATOM      2  C   UNL     1       7.938  13.979  42.654  0.00  0.00    +0.000 A 
ATOM      3  C   UNL     1       9.934  12.920  43.541  0.00  0.00    +0.000 A 
ATOM      4  C   UNL     1       8.501  15.222  42.929  0.00  0.00    +0.000 A 
ATOM      5  C   UNL     1      10.497  14.173  43.816  0.00  0.00    +0.000 A 
ATOM      6  C   UNL     1       9.763  15.324  43.503  0.00  0.00    +0.000 A 
ATOM      7  C   UNL     1      11.779  14.337  44.377  0.00  0.00    +0.000 A 
ATOM      8  C   UNL     1      10.315  16.579  43.753  0.00  0.00    +0.000 A 
ATOM      9  N   UNL     1      12.305  15.561  44.631  0.00  0.00    +0.000 NA
ATOM     10  C   UNL     1      11.579  16.655  44.324  0.00  0.00    +0.000 A 
ENDROOT
BRANCH   2  11
ATOM     11  O   UNL     1       6.676  14.020  42.071  0.00  0.00    +0.000 OA
ATOM     12  C   UNL     1       6.374  14.469  40.729  0.00  0.00    +0.000 C 
ENDBRANCH   2  11
BRANCH   1  13
ATOM     13  O   UNL     1       8.129  11.563  42.650  0.00  0.00    +0.000 OA
ATOM     14  C   UNL     1       7.093  10.890  43.400  0.00  0.00    +0.000 C 
ENDBRANCH   1  13
BRANCH   7  15
ATOM     15  C   UNL     1      12.755  13.187  44.632  0.00  0.00    +0.000 C 
BRANCH  15  16
ATOM     16  C   UNL     1      14.192  13.633  44.387  0.00  0.00    +0.000 A 
ATOM     17  C   UNL     1      14.583  14.020  43.104  0.00  0.00    +0.000 A 
ATOM     18  C   UNL     1      15.131  13.629  45.415  0.00  0.00    +0.000 A 
ATOM     19  C   UNL     1      15.915  14.364  42.822  0.00  0.00    +0.000 A 
ATOM     20  C   UNL     1      16.450  13.988  45.154  0.00  0.00    +0.000 A 
ATOM     21  C   UNL     1      16.859  14.338  43.867  0.00  0.00    +0.000 A 
BRANCH  21  22
ATOM     22  O   UNL     1      18.209  14.636  43.728  0.00  0.00    +0.000 OA
ATOM     23  C   UNL     1      18.775  15.967  43.750  0.00  0.00    +0.000 C 
ENDBRANCH  21  22
BRANCH  19  24
ATOM     24  O   UNL     1      16.290  14.710  41.529  0.00  0.00    +0.000 OA
ATOM     25  C   UNL     1      17.262  13.983  40.741  0.00  0.00    +0.000 C 
ENDBRANCH  19  24
ENDBRANCH  15  16
ENDBRANCH   7  15
TORSDOF 6
ENDMDL
MODEL 4
REMARK VINA RESULT:    -5.803      1.651      2.453
REMARK INTER + INTRA:          -8.462
REMARK INTER:                  -7.579
REMARK INTRA:                  -0.883
REMARK UNBOUND:                -0.624
REMARK  Name = opt43.pdb
REMARK  10 active torsions:
REMARK  status: ('A' for Active; 'I' for Inactive)
REMARK    1  A    between atoms: O_1  and  C_2
REMARK    2  A    between atoms: O_1  and  C_3
REMARK    3  A    between atoms: C_4  and  O_6
REMARK    4  A    between atoms: O_6  and  C_9
REMARK    5  A    between atoms: C_11  and  C_14
REMARK    6  A    between atoms: C_14  and  C_16
REMARK    7  A    between atoms: C_19  and  O_21
REMARK    8  A    between atoms: O_21  and  C_23
REMARK    9  A    between atoms: C_22  and  O_24
REMARK   10  A    between atoms: O_24  and  C_25
REMARK                            x       y       z     vdW  Elec       q    Type
REMARK                         _______ _______ _______ _____ _____    ______ ____
ROOT
ATOM      1  C   UNL     1      13.992  16.474  43.347  0.00  0.00    +0.000 A 
ATOM      2  C   UNL     1      15.126  16.192  44.134  0.00  0.00    +0.000 A 
ATOM      3  C   UNL     1      13.103  15.437  43.025  0.00  0.00    +0.000 A 
ATOM      4  C   UNL     1      15.348  14.889  44.570  0.00  0.00    +0.000 A 
ATOM      5  C   UNL     1      13.331  14.126  43.466  0.00  0.00    +0.000 A 
ATOM      6  C   UNL     1      14.465  13.865  44.243  0.00  0.00    +0.000 A 
ATOM      7  C   UNL     1      12.482  13.047  43.150  0.00  0.00    +0.000 A 
ATOM      8  C   UNL     1      14.717  12.565  44.676  0.00  0.00    +0.000 A 
ATOM      9  N   UNL     1      12.725  11.786  43.585  0.00  0.00    +0.000 NA
ATOM     10  C   UNL     1      13.822  11.558  44.335  0.00  0.00    +0.000 A 
ENDROOT
BRANCH   2  11
ATOM     11  O   UNL     1      16.092  17.115  44.521  0.00  0.00    +0.000 OA
ATOM     12  C   UNL     1      17.230  16.849  45.373  0.00  0.00    +0.000 C 
ENDBRANCH   2  11
BRANCH   1  13
ATOM     13  O   UNL     1      13.781  17.762  42.869  0.00  0.00    +0.000 OA
ATOM     14  C   UNL     1      13.003  18.782  43.535  0.00  0.00    +0.000 C 
ENDBRANCH   1  13
BRANCH   7  15
ATOM     15  C   UNL     1      11.294  13.145  42.191  0.00  0.00    +0.000 C 
BRANCH  15  16
ATOM     16  C   UNL     1       9.977  13.096  42.956  0.00  0.00    +0.000 A 
ATOM     17  C   UNL     1       9.072  12.062  42.704  0.00  0.00    +0.000 A 
ATOM     18  C   UNL     1       9.645  14.082  43.881  0.00  0.00    +0.000 A 
ATOM     19  C   UNL     1       7.817  12.024  43.332  0.00  0.00    +0.000 A 
ATOM     20  C   UNL     1       8.412  14.045  44.528  0.00  0.00    +0.000 A 
ATOM     21  C   UNL     1       7.486  13.039  44.252  0.00  0.00    +0.000 A 
BRANCH  21  22
ATOM     22  O   UNL     1       6.277  13.135  44.930  0.00  0.00    +0.000 OA
ATOM     23  C   UNL     1       5.786  14.324  45.592  0.00  0.00    +0.000 C 
ENDBRANCH  21  22
BRANCH  19  24
ATOM     24  O   UNL     1       6.918  11.007  43.037  0.00  0.00    +0.000 OA
ATOM     25  C   UNL     1       6.897   9.720  43.699  0.00  0.00    +0.000 C 
ENDBRANCH  19  24
ENDBRANCH  15  16
ENDBRANCH   7  15
TORSDOF 6
ENDMDL
MODEL 5
REMARK VINA RESULT:    -5.799      2.720      7.422
REMARK INTER + INTRA:          -8.458
REMARK INTER:                  -7.631
REMARK INTRA:                  -0.827
REMARK UNBOUND:                -0.624
REMARK  Name = opt43.pdb
REMARK  10 active torsions:
REMARK  status: ('A' for Active; 'I' for Inactive)
REMARK    1  A    between atoms: O_1  and  C_2
REMARK    2  A    between atoms: O_1  and  C_3
REMARK    3  A    between atoms: C_4  and  O_6
REMARK    4  A    between atoms: O_6  and  C_9
REMARK    5  A    between atoms: C_11  and  C_14
REMARK    6  A    between atoms: C_14  and  C_16
REMARK    7  A    between atoms: C_19  and  O_21
REMARK    8  A    between atoms: O_21  and  C_23
REMARK    9  A    between atoms: C_22  and  O_24
REMARK   10  A    between atoms: O_24  and  C_25
REMARK                            x       y       z     vdW  Elec       q    Type
REMARK                         _______ _______ _______ _____ _____    ______ ____
ROOT
ATOM      1  C   UNL     1      11.908  16.627  44.304  0.00  0.00    +0.000 A 
ATOM      2  C   UNL     1      10.739  16.341  43.571  0.00  0.00    +0.000 A 
ATOM      3  C   UNL     1      12.807  15.591  44.598  0.00  0.00    +0.000 A 
ATOM      4  C   UNL     1      10.494  15.034  43.160  0.00  0.00    +0.000 A 
ATOM      5  C   UNL     1      12.556  14.276  44.182  0.00  0.00    +0.000 A 
ATOM      6  C   UNL     1      11.387  14.011  43.458  0.00  0.00    +0.000 A 
ATOM      7  C   UNL     1      13.414  13.197  44.472  0.00  0.00    +0.000 A 
ATOM      8  C   UNL     1      11.112  12.707  43.050  0.00  0.00    +0.000 A 
ATOM      9  N   UNL     1      13.148  11.933  44.062  0.00  0.00    +0.000 NA
ATOM     10  C   UNL     1      12.018  11.701  43.363  0.00  0.00    +0.000 A 
ENDROOT
BRANCH   2  11
ATOM     11  O   UNL     1       9.760  17.263  43.217  0.00  0.00    +0.000 OA
ATOM     12  C   UNL     1       8.395  17.281  43.695  0.00  0.00    +0.000 C 
ENDBRANCH   2  11
BRANCH   1  13
ATOM     13  O   UNL     1      12.143  17.920  44.758  0.00  0.00    +0.000 OA
ATOM     14  C   UNL     1      13.247  18.319  45.603  0.00  0.00    +0.000 C 
ENDBRANCH   1  13
BRANCH   7  15
ATOM     15  C   UNL     1      14.643  13.301  45.375  0.00  0.00    +0.000 C 
BRANCH  15  16
ATOM     16  C   UNL     1      15.855  13.783  44.586  0.00  0.00    +0.000 A 
ATOM     17  C   UNL     1      16.870  14.484  45.242  0.00  0.00    +0.000 A 
ATOM     18  C   UNL     1      15.953  13.564  43.215  0.00  0.00    +0.000 A 
ATOM     19  C   UNL     1      17.964  15.009  44.537  0.00  0.00    +0.000 A 
ATOM     20  C   UNL     1      17.044  14.061  42.507  0.00  0.00    +0.000 A 
ATOM     21  C   UNL     1      18.042  14.797  43.146  0.00  0.00    +0.000 A 
BRANCH  21  22
ATOM     22  O   UNL     1      19.056  15.273  42.324  0.00  0.00    +0.000 OA
ATOM     23  C   UNL     1      20.106  14.465  41.743  0.00  0.00    +0.000 C 
ENDBRANCH  21  22
BRANCH  19  24
ATOM     24  O   UNL     1      18.943  15.736  45.204  0.00  0.00    +0.000 OA
ATOM     25  C   UNL     1      18.826  17.138  45.544  0.00  0.00    +0.000 C 
ENDBRANCH  19  24
ENDBRANCH  15  16
ENDBRANCH   7  15
TORSDOF 6
ENDMDL
MODEL 6
REMARK VINA RESULT:    -5.746      1.221      2.121
REMARK INTER + INTRA:          -8.386
REMARK INTER:                  -7.424
REMARK INTRA:                  -0.962
REMARK UNBOUND:                -0.624
REMARK  Name = opt43.pdb
REMARK  10 active torsions:
REMARK  status: ('A' for Active; 'I' for Inactive)
REMARK    1  A    between atoms: O_1  and  C_2
REMARK    2  A    between atoms: O_1  and  C_3
REMARK    3  A    between atoms: C_4  and  O_6
REMARK    4  A    between atoms: O_6  and  C_9
REMARK    5  A    between atoms: C_11  and  C_14
REMARK    6  A    between atoms: C_14  and  C_16
REMARK    7  A    between atoms: C_19  and  O_21
REMARK    8  A    between atoms: O_21  and  C_23
REMARK    9  A    between atoms: C_22  and  O_24
REMARK   10  A    between atoms: O_24  and  C_25
REMARK                            x       y       z     vdW  Elec       q    Type
REMARK                         _______ _______ _______ _____ _____    ______ ____
ROOT
ATOM      1  C   UNL     1      15.098  16.434  44.070  0.00  0.00    +0.000 A 
ATOM      2  C   UNL     1      16.185  15.707  43.544  0.00  0.00    +0.000 A 
ATOM      3  C   UNL     1      13.925  15.754  44.428  0.00  0.00    +0.000 A 
ATOM      4  C   UNL     1      16.071  14.329  43.382  0.00  0.00    +0.000 A 
ATOM      5  C   UNL     1      13.814  14.366  44.264  0.00  0.00    +0.000 A 
ATOM      6  C   UNL     1      14.903  13.662  43.737  0.00  0.00    +0.000 A 
ATOM      7  C   UNL     1      12.650  13.641  44.586  0.00  0.00    +0.000 A 
ATOM      8  C   UNL     1      14.806  12.285  43.550  0.00  0.00    +0.000 A 
ATOM      9  N   UNL     1      12.565  12.299  44.415  0.00  0.00    +0.000 NA
ATOM     10  C   UNL     1      13.628  11.640  43.908  0.00  0.00    +0.000 A 
ENDROOT
BRANCH   2  11
ATOM     11  O   UNL     1      17.400  16.249  43.140  0.00  0.00    +0.000 OA
ATOM     12  C   UNL     1      18.532  16.530  43.995  0.00  0.00    +0.000 C 
ENDBRANCH   2  11
BRANCH   1  13
ATOM     13  O   UNL     1      15.183  17.816  44.195  0.00  0.00    +0.000 OA
ATOM     14  C   UNL     1      15.478  18.525  45.420  0.00  0.00    +0.000 C 
ENDBRANCH   1  13
BRANCH   7  15
ATOM     15  C   UNL     1      11.335  14.286  45.027  0.00  0.00    +0.000 C 
BRANCH  15  16
ATOM     16  C   UNL     1      10.255  14.090  43.969  0.00  0.00    +0.000 A 
ATOM     17  C   UNL     1      10.418  14.661  42.705  0.00  0.00    +0.000 A 
ATOM     18  C   UNL     1       9.092  13.378  44.252  0.00  0.00    +0.000 A 
ATOM     19  C   UNL     1       9.413  14.568  41.730  0.00  0.00    +0.000 A 
ATOM     20  C   UNL     1       8.097  13.260  43.287  0.00  0.00    +0.000 A 
ATOM     21  C   UNL     1       8.233  13.861  42.035  0.00  0.00    +0.000 A 
BRANCH  21  22
ATOM     22  O   UNL     1       7.153  13.705  41.174  0.00  0.00    +0.000 OA
ATOM     23  C   UNL     1       6.439  12.466  40.950  0.00  0.00    +0.000 C 
ENDBRANCH  21  22
BRANCH  19  24
ATOM     24  O   UNL     1       9.581  15.176  40.492  0.00  0.00    +0.000 OA
ATOM     25  C   UNL     1      10.557  16.209  40.218  0.00  0.00    +0.000 C 
ENDBRANCH  19  24
ENDBRANCH  15  16
ENDBRANCH   7  15
TORSDOF 6
ENDMDL
MODEL 7
REMARK VINA RESULT:    -5.716      2.758      7.077
REMARK INTER + INTRA:          -8.345
REMARK INTER:                  -7.606
REMARK INTRA:                  -0.740
REMARK UNBOUND:                -0.624
REMARK  Name = opt43.pdb
REMARK  10 active torsions:
REMARK  status: ('A' for Active; 'I' for Inactive)
REMARK    1  A    between atoms: O_1  and  C_2
REMARK    2  A    between atoms: O_1  and  C_3
REMARK    3  A    between atoms: C_4  and  O_6
REMARK    4  A    between atoms: O_6  and  C_9
REMARK    5  A    between atoms: C_11  and  C_14
REMARK    6  A    between atoms: C_14  and  C_16
REMARK    7  A    between atoms: C_19  and  O_21
REMARK    8  A    between atoms: O_21  and  C_23
REMARK    9  A    between atoms: C_22  and  O_24
REMARK   10  A    between atoms: O_24  and  C_25
REMARK                            x       y       z     vdW  Elec       q    Type
REMARK                         _______ _______ _______ _____ _____    ______ ____
ROOT
ATOM      1  C   UNL     1      12.275  17.336  44.420  0.00  0.00    +0.000 A 
ATOM      2  C   UNL     1      10.973  17.405  43.887  0.00  0.00    +0.000 A 
ATOM      3  C   UNL     1      12.885  16.083  44.585  0.00  0.00    +0.000 A 
ATOM      4  C   UNL     1      10.312  16.230  43.541  0.00  0.00    +0.000 A 
ATOM      5  C   UNL     1      12.217  14.902  44.236  0.00  0.00    +0.000 A 
ATOM      6  C   UNL     1      10.922  14.992  43.711  0.00  0.00    +0.000 A 
ATOM      7  C   UNL     1      12.775  13.620  44.404  0.00  0.00    +0.000 A 
ATOM      8  C   UNL     1      10.235  13.827  43.374  0.00  0.00    +0.000 A 
ATOM      9  N   UNL     1      12.108  12.490  44.062  0.00  0.00    +0.000 NA
ATOM     10  C   UNL     1      10.863  12.600  43.555  0.00  0.00    +0.000 A 
ENDROOT
BRANCH   2  11
ATOM     11  O   UNL     1      10.246  18.573  43.677  0.00  0.00    +0.000 OA
ATOM     12  C   UNL     1       9.705  19.022  42.413  0.00  0.00    +0.000 C 
ENDBRANCH   2  11
BRANCH   1  13
ATOM     13  O   UNL     1      12.929  18.499  44.809  0.00  0.00    +0.000 OA
ATOM     14  C   UNL     1      14.224  18.928  44.331  0.00  0.00    +0.000 C 
ENDBRANCH   1  13
BRANCH   7  15
ATOM     15  C   UNL     1      14.112  13.354  45.099  0.00  0.00    +0.000 C 
BRANCH  15  16
ATOM     16  C   UNL     1      15.277  13.652  44.163  0.00  0.00    +0.000 A 
ATOM     17  C   UNL     1      16.479  14.130  44.690  0.00  0.00    +0.000 A 
ATOM     18  C   UNL     1      15.154  13.486  42.786  0.00  0.00    +0.000 A 
ATOM     19  C   UNL     1      17.549  14.487  43.854  0.00  0.00    +0.000 A 
ATOM     20  C   UNL     1      16.214  13.816  41.947  0.00  0.00    +0.000 A 
ATOM     21  C   UNL     1      17.404  14.332  42.461  0.00  0.00    +0.000 A 
BRANCH  21  22
ATOM     22  O   UNL     1      18.371  14.661  41.519  0.00  0.00    +0.000 OA
ATOM     23  C   UNL     1      18.257  14.433  40.094  0.00  0.00    +0.000 C 
ENDBRANCH  21  22
BRANCH  19  24
ATOM     24  O   UNL     1      18.721  14.996  44.398  0.00  0.00    +0.000 OA
ATOM     25  C   UNL     1      19.997  14.313  44.369  0.00  0.00    +0.000 C 
ENDBRANCH  19  24
ENDBRANCH  15  16
ENDBRANCH   7  15
TORSDOF 6
ENDMDL
MODEL 8
REMARK VINA RESULT:    -5.571      2.223      7.855
REMARK INTER + INTRA:          -8.150
REMARK INTER:                  -7.225
REMARK INTRA:                  -0.925
REMARK UNBOUND:                -0.624
REMARK  Name = opt43.pdb
REMARK  10 active torsions:
REMARK  status: ('A' for Active; 'I' for Inactive)
REMARK    1  A    between atoms: O_1  and  C_2
REMARK    2  A    between atoms: O_1  and  C_3
REMARK    3  A    between atoms: C_4  and  O_6
REMARK    4  A    between atoms: O_6  and  C_9
REMARK    5  A    between atoms: C_11  and  C_14
REMARK    6  A    between atoms: C_14  and  C_16
REMARK    7  A    between atoms: C_19  and  O_21
REMARK    8  A    between atoms: O_21  and  C_23
REMARK    9  A    between atoms: C_22  and  O_24
REMARK   10  A    between atoms: O_24  and  C_25
REMARK                            x       y       z     vdW  Elec       q    Type
REMARK                         _______ _______ _______ _____ _____    ______ ____
ROOT
ATOM      1  C   UNL     1       7.787  14.202  43.549  0.00  0.00    +0.000 A 
ATOM      2  C   UNL     1       7.407  14.017  42.205  0.00  0.00    +0.000 A 
ATOM      3  C   UNL     1       8.907  14.994  43.845  0.00  0.00    +0.000 A 
ATOM      4  C   UNL     1       8.154  14.616  41.195  0.00  0.00    +0.000 A 
ATOM      5  C   UNL     1       9.657  15.595  42.825  0.00  0.00    +0.000 A 
ATOM      6  C   UNL     1       9.266  15.396  41.495  0.00  0.00    +0.000 A 
ATOM      7  C   UNL     1      10.803  16.378  43.067  0.00  0.00    +0.000 A 
ATOM      8  C   UNL     1      10.009  15.971  40.467  0.00  0.00    +0.000 A 
ATOM      9  N   UNL     1      11.515  16.946  42.063  0.00  0.00    +0.000 NA
ATOM     10  C   UNL     1      11.118  16.744  40.790  0.00  0.00    +0.000 A 
ENDROOT
BRANCH   2  11
ATOM     11  O   UNL     1       6.329  13.255  41.768  0.00  0.00    +0.000 OA
ATOM     12  C   UNL     1       6.383  12.183  40.798  0.00  0.00    +0.000 C 
ENDBRANCH   2  11
BRANCH   1  13
ATOM     13  O   UNL     1       7.075  13.575  44.565  0.00  0.00    +0.000 OA
ATOM     14  C   UNL     1       5.920  14.126  45.237  0.00  0.00    +0.000 C 
ENDBRANCH   1  13
BRANCH   7  15
ATOM     15  C   UNL     1      11.438  16.560  44.447  0.00  0.00    +0.000 C 
BRANCH  15  16
ATOM     16  C   UNL     1      12.762  15.811  44.536  0.00  0.00    +0.000 A 
ATOM     17  C   UNL     1      12.763  14.415  44.570  0.00  0.00    +0.000 A 
ATOM     18  C   UNL     1      13.972  16.497  44.617  0.00  0.00    +0.000 A 
ATOM     19  C   UNL     1      13.956  13.692  44.728  0.00  0.00    +0.000 A 
ATOM     20  C   UNL     1      15.164  15.792  44.753  0.00  0.00    +0.000 A 
ATOM     21  C   UNL     1      15.171  14.398  44.828  0.00  0.00    +0.000 A 
BRANCH  21  22
ATOM     22  O   UNL     1      16.419  13.814  45.004  0.00  0.00    +0.000 OA
ATOM     23  C   UNL     1      17.685  14.446  44.702  0.00  0.00    +0.000 C 
ENDBRANCH  21  22
BRANCH  19  24
ATOM     24  O   UNL     1      13.929  12.305  44.798  0.00  0.00    +0.000 OA
ATOM     25  C   UNL     1      13.233  11.455  43.855  0.00  0.00    +0.000 C 
ENDBRANCH  19  24
ENDBRANCH  15  16
ENDBRANCH   7  15
TORSDOF 6
ENDMDL
MODEL 9
REMARK VINA RESULT:    -5.541      2.795      7.233
REMARK INTER + INTRA:          -8.109
REMARK INTER:                  -7.599
REMARK INTRA:                  -0.510
REMARK UNBOUND:                -0.624
REMARK  Name = opt43.pdb
REMARK  10 active torsions:
REMARK  status: ('A' for Active; 'I' for Inactive)
REMARK    1  A    between atoms: O_1  and  C_2
REMARK    2  A    between atoms: O_1  and  C_3
REMARK    3  A    between atoms: C_4  and  O_6
REMARK    4  A    between atoms: O_6  and  C_9
REMARK    5  A    between atoms: C_11  and  C_14
REMARK    6  A    between atoms: C_14  and  C_16
REMARK    7  A    between atoms: C_19  and  O_21
REMARK    8  A    between atoms: O_21  and  C_23
REMARK    9  A    between atoms: C_22  and  O_24
REMARK   10  A    between atoms: O_24  and  C_25
REMARK                            x       y       z     vdW  Elec       q    Type
REMARK                         _______ _______ _______ _____ _____    ______ ____
ROOT
ATOM      1  C   UNL     1      11.983  16.512  44.674  0.00  0.00    +0.000 A 
ATOM      2  C   UNL     1      10.870  16.667  43.825  0.00  0.00    +0.000 A 
ATOM      3  C   UNL     1      12.685  15.296  44.674  0.00  0.00    +0.000 A 
ATOM      4  C   UNL     1      10.482  15.609  43.007  0.00  0.00    +0.000 A 
ATOM      5  C   UNL     1      12.291  14.234  43.849  0.00  0.00    +0.000 A 
ATOM      6  C   UNL     1      11.180  14.406  43.015  0.00  0.00    +0.000 A 
ATOM      7  C   UNL     1      12.946  12.987  43.830  0.00  0.00    +0.000 A 
ATOM      8  C   UNL     1      10.762  13.355  42.201  0.00  0.00    +0.000 A 
ATOM      9  N   UNL     1      12.544  11.972  43.026  0.00  0.00    +0.000 NA
ATOM     10  C   UNL     1      11.473  12.161  42.228  0.00  0.00    +0.000 A 
ENDROOT
BRANCH   2  11
ATOM     11  O   UNL     1      10.080  17.807  43.727  0.00  0.00    +0.000 OA
ATOM     12  C   UNL     1       9.065  18.055  42.727  0.00  0.00    +0.000 C 
ENDBRANCH   2  11
BRANCH   1  13
ATOM     13  O   UNL     1      12.355  17.545  45.527  0.00  0.00    +0.000 OA
ATOM     14  C   UNL     1      13.676  18.128  45.604  0.00  0.00    +0.000 C 
ENDBRANCH   1  13
BRANCH   7  15
ATOM     15  C   UNL     1      14.075  12.599  44.787  0.00  0.00    +0.000 C 
BRANCH  15  16
ATOM     16  C   UNL     1      15.346  13.378  44.468  0.00  0.00    +0.000 A 
ATOM     17  C   UNL     1      15.636  13.711  43.143  0.00  0.00    +0.000 A 
ATOM     18  C   UNL     1      16.241  13.735  45.473  0.00  0.00    +0.000 A 
ATOM     19  C   UNL     1      16.832  14.361  42.802  0.00  0.00    +0.000 A 
ATOM     20  C   UNL     1      17.422  14.399  45.151  0.00  0.00    +0.000 A 
ATOM     21  C   UNL     1      17.738  14.700  43.826  0.00  0.00    +0.000 A 
BRANCH  21  22
ATOM     22  O   UNL     1      18.963  15.326  43.630  0.00  0.00    +0.000 OA
ATOM     23  C   UNL     1      19.255  16.706  43.955  0.00  0.00    +0.000 C 
ENDBRANCH  21  22
BRANCH  19  24
ATOM     24  O   UNL     1      17.117  14.649  41.472  0.00  0.00    +0.000 OA
ATOM     25  C   UNL     1      18.316  14.220  40.785  0.00  0.00    +0.000 C 
ENDBRANCH  19  24
ENDBRANCH  15  16
ENDBRANCH   7  15
TORSDOF 6
ENDMDL
MODEL 10
REMARK VINA RESULT:    -5.529      2.388      8.332
REMARK INTER + INTRA:          -8.093
REMARK INTER:                  -7.243
REMARK INTRA:                  -0.850
REMARK UNBOUND:                -0.624
REMARK  Name = opt43.pdb
REMARK  10 active torsions:
REMARK  status: ('A' for Active; 'I' for Inactive)
REMARK    1  A    between atoms: O_1  and  C_2
REMARK    2  A    between atoms: O_1  and  C_3
REMARK    3  A    between atoms: C_4  and  O_6
REMARK    4  A    between atoms: O_6  and  C_9
REMARK    5  A    between atoms: C_11  and  C_14
REMARK    6  A    between atoms: C_14  and  C_16
REMARK    7  A    between atoms: C_19  and  O_21
REMARK    8  A    between atoms: O_21  and  C_23
REMARK    9  A    between atoms: C_22  and  O_24
REMARK   10  A    between atoms: O_24  and  C_25
REMARK                            x       y       z     vdW  Elec       q    Type
REMARK                         _______ _______ _______ _____ _____    ______ ____
ROOT
ATOM      1  C   UNL     1      10.791  13.754  43.603  0.00  0.00    +0.000 A 
ATOM      2  C   UNL     1      10.106  14.948  43.300  0.00  0.00    +0.000 A 
ATOM      3  C   UNL     1      12.101  13.820  44.102  0.00  0.00    +0.000 A 
ATOM      4  C   UNL     1      10.745  16.170  43.494  0.00  0.00    +0.000 A 
ATOM      5  C   UNL     1      12.740  15.053  44.295  0.00  0.00    +0.000 A 
ATOM      6  C   UNL     1      12.044  16.227  43.985  0.00  0.00    +0.000 A 
ATOM      7  C   UNL     1      14.061  15.171  44.769  0.00  0.00    +0.000 A 
ATOM      8  C   UNL     1      12.670  17.461  44.154  0.00  0.00    +0.000 A 
ATOM      9  N   UNL     1      14.660  16.375  44.945  0.00  0.00    +0.000 NA
ATOM     10  C   UNL     1      13.970  17.494  44.643  0.00  0.00    +0.000 A 
ENDROOT
BRANCH   2  11
ATOM     11  O   UNL     1       8.814  15.033  42.794  0.00  0.00    +0.000 OA
ATOM     12  C   UNL     1       7.622  15.346  43.552  0.00  0.00    +0.000 C 
ENDBRANCH   2  11
BRANCH   1  13
ATOM     13  O   UNL     1      10.181  12.527  43.374  0.00  0.00    +0.000 OA
ATOM     14  C   UNL     1      10.705  11.480  42.525  0.00  0.00    +0.000 C 
ENDBRANCH   1  13
BRANCH   7  15
ATOM     15  C   UNL     1      14.995  13.983  45.007  0.00  0.00    +0.000 C 
BRANCH  15  16
ATOM     16  C   UNL     1      16.262  14.115  44.170  0.00  0.00    +0.000 A 
ATOM     17  C   UNL     1      17.497  14.252  44.808  0.00  0.00    +0.000 A 
ATOM     18  C   UNL     1      16.206  14.134  42.779  0.00  0.00    +0.000 A 
ATOM     19  C   UNL     1      18.676  14.452  44.073  0.00  0.00    +0.000 A 
ATOM     20  C   UNL     1      17.371  14.311  42.038  0.00  0.00    +0.000 A 
ATOM     21  C   UNL     1      18.604  14.488  42.667  0.00  0.00    +0.000 A 
BRANCH  21  22
ATOM     22  O   UNL     1      19.685  14.696  41.819  0.00  0.00    +0.000 OA
ATOM     23  C   UNL     1      19.953  15.919  41.095  0.00  0.00    +0.000 C 
ENDBRANCH  21  22
BRANCH  19  24
ATOM     24  O   UNL     1      19.889  14.624  44.730  0.00  0.00    +0.000 OA
ATOM     25  C   UNL     1      20.435  15.910  45.110  0.00  0.00    +0.000 C 
ENDBRANCH  19  24
ENDBRANCH  15  16
ENDBRANCH   7  15
TORSDOF 6
ENDMDL
MODEL 11
REMARK VINA RESULT:    -5.526      1.873      2.415
REMARK INTER + INTRA:          -8.088
REMARK INTER:                  -7.192
REMARK INTRA:                  -0.896
REMARK UNBOUND:                -0.624
REMARK  Name = opt43.pdb
REMARK  10 active torsions:
REMARK  status: ('A' for Active; 'I' for Inactive)
REMARK    1  A    between atoms: O_1  and  C_2
REMARK    2  A    between atoms: O_1  and  C_3
REMARK    3  A    between atoms: C_4  and  O_6
REMARK    4  A    between atoms: O_6  and  C_9
REMARK    5  A    between atoms: C_11  and  C_14
REMARK    6  A    between atoms: C_14  and  C_16
REMARK    7  A    between atoms: C_19  and  O_21
REMARK    8  A    between atoms: O_21  and  C_23
REMARK    9  A    between atoms: C_22  and  O_24
REMARK   10  A    between atoms: O_24  and  C_25
REMARK                            x       y       z     vdW  Elec       q    Type
REMARK                         _______ _______ _______ _____ _____    ______ ____
ROOT
ATOM      1  C   UNL     1      16.649  15.838  44.742  0.00  0.00    +0.000 A 
ATOM      2  C   UNL     1      17.443  15.740  43.582  0.00  0.00    +0.000 A 
ATOM      3  C   UNL     1      15.515  15.021  44.870  0.00  0.00    +0.000 A 
ATOM      4  C   UNL     1      17.084  14.840  42.582  0.00  0.00    +0.000 A 
ATOM      5  C   UNL     1      15.157  14.117  43.861  0.00  0.00    +0.000 A 
ATOM      6  C   UNL     1      15.957  14.036  42.715  0.00  0.00    +0.000 A 
ATOM      7  C   UNL     1      14.017  13.293  43.931  0.00  0.00    +0.000 A 
ATOM      8  C   UNL     1      15.607  13.156  41.693  0.00  0.00    +0.000 A 
ATOM      9  N   UNL     1      13.688  12.428  42.941  0.00  0.00    +0.000 NA
ATOM     10  C   UNL     1      14.475  12.365  41.847  0.00  0.00    +0.000 A 
ENDROOT
BRANCH   2  11
ATOM     11  O   UNL     1      18.584  16.490  43.317  0.00  0.00    +0.000 OA
ATOM     12  C   UNL     1      19.943  15.994  43.305  0.00  0.00    +0.000 C 
ENDBRANCH   2  11
BRANCH   1  13
ATOM     13  O   UNL     1      16.972  16.763  45.728  0.00  0.00    +0.000 OA
ATOM     14  C   UNL     1      16.543  18.143  45.749  0.00  0.00    +0.000 C 
ENDBRANCH   1  13
BRANCH   7  15
ATOM     15  C   UNL     1      12.970  13.374  45.044  0.00  0.00    +0.000 C 
BRANCH  15  16
ATOM     16  C   UNL     1      11.782  14.225  44.608  0.00  0.00    +0.000 A 
ATOM     17  C   UNL     1      10.546  13.616  44.381  0.00  0.00    +0.000 A 
ATOM     18  C   UNL     1      11.917  15.595  44.401  0.00  0.00    +0.000 A 
ATOM     19  C   UNL     1       9.450  14.352  43.906  0.00  0.00    +0.000 A 
ATOM     20  C   UNL     1      10.832  16.341  43.951  0.00  0.00    +0.000 A 
ATOM     21  C   UNL     1       9.604  15.735  43.683  0.00  0.00    +0.000 A 
BRANCH  21  22
ATOM     22  O   UNL     1       8.612  16.579  43.200  0.00  0.00    +0.000 OA
ATOM     23  C   UNL     1       7.516  17.110  43.982  0.00  0.00    +0.000 C 
ENDBRANCH  21  22
BRANCH  19  24
ATOM     24  O   UNL     1       8.239  13.719  43.651  0.00  0.00    +0.000 OA
ATOM     25  C   UNL     1       8.090  12.291  43.468  0.00  0.00    +0.000 C 
ENDBRANCH  19  24
ENDBRANCH  15  16
ENDBRANCH   7  15
TORSDOF 6
ENDMDL
MODEL 12
REMARK VINA RESULT:    -5.499      2.367      4.048
REMARK INTER + INTRA:          -8.052
REMARK INTER:                  -7.034
REMARK INTRA:                  -1.018
REMARK UNBOUND:                -0.624
REMARK  Name = opt43.pdb
REMARK  10 active torsions:
REMARK  status: ('A' for Active; 'I' for Inactive)
REMARK    1  A    between atoms: O_1  and  C_2
REMARK    2  A    between atoms: O_1  and  C_3
REMARK    3  A    between atoms: C_4  and  O_6
REMARK    4  A    between atoms: O_6  and  C_9
REMARK    5  A    between atoms: C_11  and  C_14
REMARK    6  A    between atoms: C_14  and  C_16
REMARK    7  A    between atoms: C_19  and  O_21
REMARK    8  A    between atoms: O_21  and  C_23
REMARK    9  A    between atoms: C_22  and  O_24
REMARK   10  A    between atoms: O_24  and  C_25
REMARK                            x       y       z     vdW  Elec       q    Type
REMARK                         _______ _______ _______ _____ _____    ______ ____
ROOT
ATOM      1  C   UNL     1      16.917  17.722  45.821  0.00  0.00    +0.000 A 
ATOM      2  C   UNL     1      17.591  18.418  44.798  0.00  0.00    +0.000 A 
ATOM      3  C   UNL     1      16.609  16.365  45.642  0.00  0.00    +0.000 A 
ATOM      4  C   UNL     1      17.931  17.748  43.626  0.00  0.00    +0.000 A 
ATOM      5  C   UNL     1      16.952  15.695  44.461  0.00  0.00    +0.000 A 
ATOM      6  C   UNL     1      17.618  16.404  43.454  0.00  0.00    +0.000 A 
ATOM      7  C   UNL     1      16.644  14.341  44.223  0.00  0.00    +0.000 A 
ATOM      8  C   UNL     1      17.952  15.759  42.265  0.00  0.00    +0.000 A 
ATOM      9  N   UNL     1      16.983  13.714  43.070  0.00  0.00    +0.000 NA
ATOM     10  C   UNL     1      17.627  14.416  42.115  0.00  0.00    +0.000 A 
ENDROOT
BRANCH   2  11
ATOM     11  O   UNL     1      17.951  19.761  44.834  0.00  0.00    +0.000 OA
ATOM     12  C   UNL     1      17.100  20.879  44.493  0.00  0.00    +0.000 C 
ENDBRANCH   2  11
BRANCH   1  13
ATOM     13  O   UNL     1      16.534  18.390  46.978  0.00  0.00    +0.000 OA
ATOM     14  C   UNL     1      17.359  18.563  48.153  0.00  0.00    +0.000 C 
ENDBRANCH   1  13
BRANCH   7  15
ATOM     15  C   UNL     1      15.793  13.481  45.159  0.00  0.00    +0.000 C 
BRANCH  15  16
ATOM     16  C   UNL     1      14.393  13.282  44.589  0.00  0.00    +0.000 A 
ATOM     17  C   UNL     1      13.469  14.327  44.652  0.00  0.00    +0.000 A 
ATOM     18  C   UNL     1      14.010  12.064  44.033  0.00  0.00    +0.000 A 
ATOM     19  C   UNL     1      12.149  14.158  44.207  0.00  0.00    +0.000 A 
ATOM     20  C   UNL     1      12.709  11.890  43.568  0.00  0.00    +0.000 A 
ATOM     21  C   UNL     1      11.768  12.915  43.664  0.00  0.00    +0.000 A 
BRANCH  21  22
ATOM     22  O   UNL     1      10.494  12.605  43.203  0.00  0.00    +0.000 OA
ATOM     23  C   UNL     1      10.041  12.763  41.838  0.00  0.00    +0.000 C 
ENDBRANCH  21  22
BRANCH  19  24
ATOM     24  O   UNL     1      11.236  15.200  44.315  0.00  0.00    +0.000 OA
ATOM     25  C   UNL     1      10.963  16.157  43.263  0.00  0.00    +0.000 C 
ENDBRANCH  19  24
ENDBRANCH  15  16
ENDBRANCH   7  15
TORSDOF 6
ENDMDL
MODEL 13
REMARK VINA RESULT:    -5.468      2.845      7.619
REMARK INTER + INTRA:          -8.011
REMARK INTER:                  -7.068
REMARK INTRA:                  -0.943
REMARK UNBOUND:                -0.624
REMARK  Name = opt43.pdb
REMARK  10 active torsions:
REMARK  status: ('A' for Active; 'I' for Inactive)
REMARK    1  A    between atoms: O_1  and  C_2
REMARK    2  A    between atoms: O_1  and  C_3
REMARK    3  A    between atoms: C_4  and  O_6
REMARK    4  A    between atoms: O_6  and  C_9
REMARK    5  A    between atoms: C_11  and  C_14
REMARK    6  A    between atoms: C_14  and  C_16
REMARK    7  A    between atoms: C_19  and  O_21
REMARK    8  A    between atoms: O_21  and  C_23
REMARK    9  A    between atoms: C_22  and  O_24
REMARK   10  A    between atoms: O_24  and  C_25
REMARK                            x       y       z     vdW  Elec       q    Type
REMARK                         _______ _______ _______ _____ _____    ______ ____
ROOT
ATOM      1  C   UNL     1      12.812  16.650  44.187  0.00  0.00    +0.000 A 
ATOM      2  C   UNL     1      11.678  16.062  43.590  0.00  0.00    +0.000 A 
ATOM      3  C   UNL     1      13.887  15.834  44.572  0.00  0.00    +0.000 A 
ATOM      4  C   UNL     1      11.642  14.684  43.401  0.00  0.00    +0.000 A 
ATOM      5  C   UNL     1      13.847  14.446  44.380  0.00  0.00    +0.000 A 
ATOM      6  C   UNL     1      12.710  13.881  43.788  0.00  0.00    +0.000 A 
ATOM      7  C   UNL     1      14.888  13.582  44.770  0.00  0.00    +0.000 A 
ATOM      8  C   UNL     1      12.645  12.502  43.605  0.00  0.00    +0.000 A 
ATOM      9  N   UNL     1      14.826  12.242  44.577  0.00  0.00    +0.000 NA
ATOM     10  C   UNL     1      13.723  11.720  44.003  0.00  0.00    +0.000 A 
ENDROOT
BRANCH   2  11
ATOM     11  O   UNL     1      10.541  16.744  43.169  0.00  0.00    +0.000 OA
ATOM     12  C   UNL     1       9.177  16.429  43.533  0.00  0.00    +0.000 C 
ENDBRANCH   2  11
BRANCH   1  13
ATOM     13  O   UNL     1      12.842  18.019  44.421  0.00  0.00    +0.000 OA
ATOM     14  C   UNL     1      13.311  19.015  43.484  0.00  0.00    +0.000 C 
ENDBRANCH   1  13
BRANCH   7  15
ATOM     15  C   UNL     1      16.120  14.030  45.558  0.00  0.00    +0.000 C 
BRANCH  15  16
ATOM     16  C   UNL     1      17.113  14.746  44.650  0.00  0.00    +0.000 A 
ATOM     17  C   UNL     1      17.455  14.179  43.420  0.00  0.00    +0.000 A 
ATOM     18  C   UNL     1      17.712  15.941  45.040  0.00  0.00    +0.000 A 
ATOM     19  C   UNL     1      18.421  14.768  42.591  0.00  0.00    +0.000 A 
ATOM     20  C   UNL     1      18.656  16.548  44.217  0.00  0.00    +0.000 A 
ATOM     21  C   UNL     1      19.033  15.968  43.006  0.00  0.00    +0.000 A 
BRANCH  21  22
ATOM     22  O   UNL     1      20.014  16.648  42.295  0.00  0.00    +0.000 OA
ATOM     23  C   UNL     1      19.765  17.618  41.250  0.00  0.00    +0.000 C 
ENDBRANCH  21  22
BRANCH  19  24
ATOM     24  O   UNL     1      18.773  14.166  41.389  0.00  0.00    +0.000 OA
ATOM     25  C   UNL     1      18.069  14.367  40.141  0.00  0.00    +0.000 C 
ENDBRANCH  19  24
ENDBRANCH  15  16
ENDBRANCH   7  15
TORSDOF 6
ENDMDL
MODEL 14
REMARK VINA RESULT:    -5.451      2.330      7.670
REMARK INTER + INTRA:          -7.987
REMARK INTER:                  -7.119
REMARK INTRA:                  -0.868
REMARK UNBOUND:                -0.624
REMARK  Name = opt43.pdb
REMARK  10 active torsions:
REMARK  status: ('A' for Active; 'I' for Inactive)
REMARK    1  A    between atoms: O_1  and  C_2
REMARK    2  A    between atoms: O_1  and  C_3
REMARK    3  A    between atoms: C_4  and  O_6
REMARK    4  A    between atoms: O_6  and  C_9
REMARK    5  A    between atoms: C_11  and  C_14
REMARK    6  A    between atoms: C_14  and  C_16
REMARK    7  A    between atoms: C_19  and  O_21
REMARK    8  A    between atoms: O_21  and  C_23
REMARK    9  A    between atoms: C_22  and  O_24
REMARK   10  A    between atoms: O_24  and  C_25
REMARK                            x       y       z     vdW  Elec       q    Type
REMARK                         _______ _______ _______ _____ _____    ______ ____
ROOT
ATOM      1  C   UNL     1       9.270  16.314  43.003  0.00  0.00    +0.000 A 
ATOM      2  C   UNL     1       8.493  15.635  42.043  0.00  0.00    +0.000 A 
ATOM      3  C   UNL     1      10.356  15.654  43.599  0.00  0.00    +0.000 A 
ATOM      4  C   UNL     1       8.811  14.322  41.710  0.00  0.00    +0.000 A 
ATOM      5  C   UNL     1      10.672  14.331  43.262  0.00  0.00    +0.000 A 
ATOM      6  C   UNL     1       9.885  13.673  42.308  0.00  0.00    +0.000 A 
ATOM      7  C   UNL     1      11.735  13.618  43.848  0.00  0.00    +0.000 A 
ATOM      8  C   UNL     1      10.174  12.352  41.973  0.00  0.00    +0.000 A 
ATOM      9  N   UNL     1      12.021  12.337  43.509  0.00  0.00    +0.000 NA
ATOM     10  C   UNL     1      11.252  11.723  42.586  0.00  0.00    +0.000 A 
ENDROOT
BRANCH   2  11
ATOM     11  O   UNL     1       7.388  16.160  41.380  0.00  0.00    +0.000 OA
ATOM     12  C   UNL     1       6.012  15.756  41.569  0.00  0.00    +0.000 C 
ENDBRANCH   2  11
BRANCH   1  13
ATOM     13  O   UNL     1       8.937  17.611  43.375  0.00  0.00    +0.000 OA
ATOM     14  C   UNL     1       9.167  18.793  42.575  0.00  0.00    +0.000 C 
ENDBRANCH   1  13
BRANCH   7  15
ATOM     15  C   UNL     1      12.585  14.147  45.005  0.00  0.00    +0.000 C 
BRANCH  15  16
ATOM     16  C   UNL     1      14.050  14.250  44.597  0.00  0.00    +0.000 A 
ATOM     17  C   UNL     1      14.400  14.988  43.465  0.00  0.00    +0.000 A 
ATOM     18  C   UNL     1      15.044  13.593  45.318  0.00  0.00    +0.000 A 
ATOM     19  C   UNL     1      15.728  15.044  43.014  0.00  0.00    +0.000 A 
ATOM     20  C   UNL     1      16.369  13.657  44.894  0.00  0.00    +0.000 A 
ATOM     21  C   UNL     1      16.722  14.359  43.741  0.00  0.00    +0.000 A 
BRANCH  21  22
ATOM     22  O   UNL     1      18.068  14.314  43.401  0.00  0.00    +0.000 OA
ATOM     23  C   UNL     1      19.167  14.509  44.322  0.00  0.00    +0.000 C 
ENDBRANCH  21  22
BRANCH  19  24
ATOM     24  O   UNL     1      16.047  15.753  41.863  0.00  0.00    +0.000 OA
ATOM     25  C   UNL     1      16.498  17.128  41.852  0.00  0.00    +0.000 C 
ENDBRANCH  19  24
ENDBRANCH  15  16
ENDBRANCH   7  15
TORSDOF 6
ENDMDL
MODEL 15
REMARK VINA RESULT:    -5.434      1.590      1.808
REMARK INTER + INTRA:          -7.965
REMARK INTER:                  -6.990
REMARK INTRA:                  -0.975
REMARK UNBOUND:                -0.624
REMARK  Name = opt43.pdb
REMARK  10 active torsions:
REMARK  status: ('A' for Active; 'I' for Inactive)
REMARK    1  A    between atoms: O_1  and  C_2
REMARK    2  A    between atoms: O_1  and  C_3
REMARK    3  A    between atoms: C_4  and  O_6
REMARK    4  A    between atoms: O_6  and  C_9
REMARK    5  A    between atoms: C_11  and  C_14
REMARK    6  A    between atoms: C_14  and  C_16
REMARK    7  A    between atoms: C_19  and  O_21
REMARK    8  A    between atoms: O_21  and  C_23
REMARK    9  A    between atoms: C_22  and  O_24
REMARK   10  A    between atoms: O_24  and  C_25
REMARK                            x       y       z     vdW  Elec       q    Type
REMARK                         _______ _______ _______ _____ _____    ______ ____
ROOT
ATOM      1  C   UNL     1      15.914  15.958  44.341  0.00  0.00    +0.000 A 
ATOM      2  C   UNL     1      16.815  14.970  43.894  0.00  0.00    +0.000 A 
ATOM      3  C   UNL     1      14.575  15.612  44.574  0.00  0.00    +0.000 A 
ATOM      4  C   UNL     1      16.357  13.673  43.684  0.00  0.00    +0.000 A 
ATOM      5  C   UNL     1      14.118  14.305  44.362  0.00  0.00    +0.000 A 
ATOM      6  C   UNL     1      15.027  13.338  43.914  0.00  0.00    +0.000 A 
ATOM      7  C   UNL     1      12.779  13.913  44.558  0.00  0.00    +0.000 A 
ATOM      8  C   UNL     1      14.587  12.037  43.681  0.00  0.00    +0.000 A 
ATOM      9  N   UNL     1      12.359  12.642  44.343  0.00  0.00    +0.000 NA
ATOM     10  C   UNL     1      13.252  11.727  43.915  0.00  0.00    +0.000 A 
ENDROOT
BRANCH   2  11
ATOM     11  O   UNL     1      18.162  15.171  43.615  0.00  0.00    +0.000 OA
ATOM     12  C   UNL     1      19.261  14.963  44.533  0.00  0.00    +0.000 C 
ENDBRANCH   2  11
BRANCH   1  13
ATOM     13  O   UNL     1      16.349  17.267  44.512  0.00  0.00    +0.000 OA
ATOM     14  C   UNL     1      16.778  17.846  45.766  0.00  0.00    +0.000 C 
ENDBRANCH   1  13
BRANCH   7  15
ATOM     15  C   UNL     1      11.646  14.882  44.899  0.00  0.00    +0.000 C 
BRANCH  15  16
ATOM     16  C   UNL     1      10.794  15.172  43.668  0.00  0.00    +0.000 A 
ATOM     17  C   UNL     1       9.455  14.775  43.648  0.00  0.00    +0.000 A 
ATOM     18  C   UNL     1      11.337  15.797  42.549  0.00  0.00    +0.000 A 
ATOM     19  C   UNL     1       8.660  14.955  42.506  0.00  0.00    +0.000 A 
ATOM     20  C   UNL     1      10.553  16.002  41.417  0.00  0.00    +0.000 A 
ATOM     21  C   UNL     1       9.226  15.573  41.373  0.00  0.00    +0.000 A 
BRANCH  21  22
ATOM     22  O   UNL     1       8.563  15.798  40.173  0.00  0.00    +0.000 OA
ATOM     23  C   UNL     1       9.143  16.423  39.005  0.00  0.00    +0.000 C 
ENDBRANCH  21  22
BRANCH  19  24
ATOM     24  O   UNL     1       7.340  14.518  42.496  0.00  0.00    +0.000 OA
ATOM     25  C   UNL     1       6.928  13.183  42.121  0.00  0.00    +0.000 C 
ENDBRANCH  19  24
ENDBRANCH  15  16
ENDBRANCH   7  15
TORSDOF 6
ENDMDL
MODEL 16
REMARK VINA RESULT:    -5.404      2.457      7.737
REMARK INTER + INTRA:          -7.924
REMARK INTER:                  -7.249
REMARK INTRA:                  -0.675
REMARK UNBOUND:                -0.624
REMARK  Name = opt43.pdb
REMARK  10 active torsions:
REMARK  status: ('A' for Active; 'I' for Inactive)
REMARK    1  A    between atoms: O_1  and  C_2
REMARK    2  A    between atoms: O_1  and  C_3
REMARK    3  A    between atoms: C_4  and  O_6
REMARK    4  A    between atoms: O_6  and  C_9
REMARK    5  A    between atoms: C_11  and  C_14
REMARK    6  A    between atoms: C_14  and  C_16
REMARK    7  A    between atoms: C_19  and  O_21
REMARK    8  A    between atoms: O_21  and  C_23
REMARK    9  A    between atoms: C_22  and  O_24
REMARK   10  A    between atoms: O_24  and  C_25
REMARK                            x       y       z     vdW  Elec       q    Type
REMARK                         _______ _______ _______ _____ _____    ______ ____
ROOT
ATOM      1  C   UNL     1      12.181  13.683  44.359  0.00  0.00    +0.000 A 
ATOM      2  C   UNL     1      10.945  13.888  43.713  0.00  0.00    +0.000 A 
ATOM      3  C   UNL     1      12.942  14.793  44.755  0.00  0.00    +0.000 A 
ATOM      4  C   UNL     1      10.508  15.188  43.471  0.00  0.00    +0.000 A 
ATOM      5  C   UNL     1      12.498  16.100  44.510  0.00  0.00    +0.000 A 
ATOM      6  C   UNL     1      11.270  16.283  43.863  0.00  0.00    +0.000 A 
ATOM      7  C   UNL     1      13.236  17.246  44.865  0.00  0.00    +0.000 A 
ATOM      8  C   UNL     1      10.820  17.574  43.596  0.00  0.00    +0.000 A 
ATOM      9  N   UNL     1      12.788  18.500  44.615  0.00  0.00    +0.000 NA
ATOM     10  C   UNL     1      11.600  18.653  43.993  0.00  0.00    +0.000 A 
ENDROOT
BRANCH   2  11
ATOM     11  O   UNL     1      10.094  12.887  43.260  0.00  0.00    +0.000 OA
ATOM     12  C   UNL     1       8.722  12.685  43.675  0.00  0.00    +0.000 C 
ENDBRANCH   2  11
BRANCH   1  13
ATOM     13  O   UNL     1      12.649  12.391  44.567  0.00  0.00    +0.000 OA
ATOM     14  C   UNL     1      14.021  11.965  44.403  0.00  0.00    +0.000 C 
ENDBRANCH   1  13
BRANCH   7  15
ATOM     15  C   UNL     1      14.654  17.206  45.438  0.00  0.00    +0.000 C 
BRANCH  15  16
ATOM     16  C   UNL     1      15.624  16.586  44.439  0.00  0.00    +0.000 A 
ATOM     17  C   UNL     1      16.578  15.668  44.884  0.00  0.00    +0.000 A 
ATOM     18  C   UNL     1      15.596  16.943  43.094  0.00  0.00    +0.000 A 
ATOM     19  C   UNL     1      17.536  15.133  44.009  0.00  0.00    +0.000 A 
ATOM     20  C   UNL     1      16.528  16.403  42.211  0.00  0.00    +0.000 A 
ATOM     21  C   UNL     1      17.509  15.517  42.654  0.00  0.00    +0.000 A 
BRANCH  21  22
ATOM     22  O   UNL     1      18.405  15.081  41.685  0.00  0.00    +0.000 OA
ATOM     23  C   UNL     1      18.067  14.241  40.556  0.00  0.00    +0.000 C 
ENDBRANCH  21  22
BRANCH  19  24
ATOM     24  O   UNL     1      18.499  14.250  44.482  0.00  0.00    +0.000 OA
ATOM     25  C   UNL     1      19.912  14.553  44.564  0.00  0.00    +0.000 C 
ENDBRANCH  19  24
ENDBRANCH  15  16
ENDBRANCH   7  15
TORSDOF 6
ENDMDL
MODEL 17
REMARK VINA RESULT:    -5.401      2.095      2.945
REMARK INTER + INTRA:          -7.919
REMARK INTER:                  -6.926
REMARK INTRA:                  -0.994
REMARK UNBOUND:                -0.624
REMARK  Name = opt43.pdb
REMARK  10 active torsions:
REMARK  status: ('A' for Active; 'I' for Inactive)
REMARK    1  A    between atoms: O_1  and  C_2
REMARK    2  A    between atoms: O_1  and  C_3
REMARK    3  A    between atoms: C_4  and  O_6
REMARK    4  A    between atoms: O_6  and  C_9
REMARK    5  A    between atoms: C_11  and  C_14
REMARK    6  A    between atoms: C_14  and  C_16
REMARK    7  A    between atoms: C_19  and  O_21
REMARK    8  A    between atoms: O_21  and  C_23
REMARK    9  A    between atoms: C_22  and  O_24
REMARK   10  A    between atoms: O_24  and  C_25
REMARK                            x       y       z     vdW  Elec       q    Type
REMARK                         _______ _______ _______ _____ _____    ______ ____
ROOT
ATOM      1  C   UNL     1      17.360  16.549  45.508  0.00  0.00    +0.000 A 
ATOM      2  C   UNL     1      18.234  16.725  44.417  0.00  0.00    +0.000 A 
ATOM      3  C   UNL     1      16.310  15.623  45.406  0.00  0.00    +0.000 A 
ATOM      4  C   UNL     1      18.035  15.984  43.256  0.00  0.00    +0.000 A 
ATOM      5  C   UNL     1      16.113  14.880  44.235  0.00  0.00    +0.000 A 
ATOM      6  C   UNL     1      16.990  15.072  43.160  0.00  0.00    +0.000 A 
ATOM      7  C   UNL     1      15.061  13.957  44.074  0.00  0.00    +0.000 A 
ATOM      8  C   UNL     1      16.799  14.354  41.982  0.00  0.00    +0.000 A 
ATOM      9  N   UNL     1      14.887  13.251  42.929  0.00  0.00    +0.000 NA
ATOM     10  C   UNL     1      15.746  13.450  41.908  0.00  0.00    +0.000 A 
ENDROOT
BRANCH   2  11
ATOM     11  O   UNL     1      19.307  17.609  44.375  0.00  0.00    +0.000 OA
ATOM     12  C   UNL     1      19.260  18.983  43.927  0.00  0.00    +0.000 C 
ENDBRANCH   2  11
BRANCH   1  13
ATOM     13  O   UNL     1      17.522  17.313  46.658  0.00  0.00    +0.000 OA
ATOM     14  C   UNL     1      16.920  18.607  46.890  0.00  0.00    +0.000 C 
ENDBRANCH   1  13
BRANCH   7  15
ATOM     15  C   UNL     1      13.941  13.750  45.095  0.00  0.00    +0.000 C 
BRANCH  15  16
ATOM     16  C   UNL     1      12.650  14.410  44.624  0.00  0.00    +0.000 A 
ATOM     17  C   UNL     1      11.579  13.613  44.216  0.00  0.00    +0.000 A 
ATOM     18  C   UNL     1      12.533  15.796  44.564  0.00  0.00    +0.000 A 
ATOM     19  C   UNL     1      10.402  14.183  43.705  0.00  0.00    +0.000 A 
ATOM     20  C   UNL     1      11.363  16.375  44.079  0.00  0.00    +0.000 A 
ATOM     21  C   UNL     1      10.302  15.587  43.631  0.00  0.00    +0.000 A 
BRANCH  21  22
ATOM     22  O   UNL     1       9.208  16.282  43.133  0.00  0.00    +0.000 OA
ATOM     23  C   UNL     1       8.143  16.846  43.935  0.00  0.00    +0.000 C 
ENDBRANCH  21  22
BRANCH  19  24
ATOM     24  O   UNL     1       9.363  13.370  43.268  0.00  0.00    +0.000 OA
ATOM     25  C   UNL     1       8.181  13.070  44.048  0.00  0.00    +0.000 C 
ENDBRANCH  19  24
ENDBRANCH  15  16
ENDBRANCH   7  15
TORSDOF 6
ENDMDL
MODEL 18
REMARK VINA RESULT:    -5.278      2.379      7.869
REMARK INTER + INTRA:          -7.753
REMARK INTER:                  -6.914
REMARK INTRA:                  -0.839
REMARK UNBOUND:                -0.624
REMARK  Name = opt43.pdb
REMARK  10 active torsions:
REMARK  status: ('A' for Active; 'I' for Inactive)
REMARK    1  A    between atoms: O_1  and  C_2
REMARK    2  A    between atoms: O_1  and  C_3
REMARK    3  A    between atoms: C_4  and  O_6
REMARK    4  A    between atoms: O_6  and  C_9
REMARK    5  A    between atoms: C_11  and  C_14
REMARK    6  A    between atoms: C_14  and  C_16
REMARK    7  A    between atoms: C_19  and  O_21
REMARK    8  A    between atoms: O_21  and  C_23
REMARK    9  A    between atoms: C_22  and  O_24
REMARK   10  A    between atoms: O_24  and  C_25
REMARK                            x       y       z     vdW  Elec       q    Type
REMARK                         _______ _______ _______ _____ _____    ______ ____
ROOT
ATOM      1  C   UNL     1       9.575  12.791  42.869  0.00  0.00    +0.000 A 
ATOM      2  C   UNL     1       8.320  12.982  43.481  0.00  0.00    +0.000 A 
ATOM      3  C   UNL     1      10.372  13.907  42.573  0.00  0.00    +0.000 A 
ATOM      4  C   UNL     1       7.891  14.273  43.773  0.00  0.00    +0.000 A 
ATOM      5  C   UNL     1       9.937  15.206  42.868  0.00  0.00    +0.000 A 
ATOM      6  C   UNL     1       8.685  15.375  43.473  0.00  0.00    +0.000 A 
ATOM      7  C   UNL     1      10.688  16.359  42.570  0.00  0.00    +0.000 A 
ATOM      8  C   UNL     1       8.228  16.660  43.758  0.00  0.00    +0.000 A 
ATOM      9  N   UNL     1      10.245  17.606  42.861  0.00  0.00    +0.000 NA
ATOM     10  C   UNL     1       9.038  17.745  43.447  0.00  0.00    +0.000 A 
ENDROOT
BRANCH   2  11
ATOM     11  O   UNL     1       7.425  11.973  43.822  0.00  0.00    +0.000 OA
ATOM     12  C   UNL     1       6.329  11.497  43.006  0.00  0.00    +0.000 C 
ENDBRANCH   2  11
BRANCH   1  13
ATOM     13  O   UNL     1       9.996  11.510  42.533  0.00  0.00    +0.000 OA
ATOM     14  C   UNL     1      11.324  10.983  42.756  0.00  0.00    +0.000 C 
ENDBRANCH   1  13
BRANCH   7  15
ATOM     15  C   UNL     1      11.998  16.345  41.779  0.00  0.00    +0.000 C 
BRANCH  15  16
ATOM     16  C   UNL     1      13.178  16.038  42.693  0.00  0.00    +0.000 A 
ATOM     17  C   UNL     1      13.745  14.762  42.681  0.00  0.00    +0.000 A 
ATOM     18  C   UNL     1      13.682  17.000  43.565  0.00  0.00    +0.000 A 
ATOM     19  C   UNL     1      14.783  14.418  43.561  0.00  0.00    +0.000 A 
ATOM     20  C   UNL     1      14.725  16.679  44.429  0.00  0.00    +0.000 A 
ATOM     21  C   UNL     1      15.271  15.395  44.452  0.00  0.00    +0.000 A 
BRANCH  21  22
ATOM     22  O   UNL     1      16.278  15.189  45.386  0.00  0.00    +0.000 OA
ATOM     23  C   UNL     1      17.552  15.875  45.403  0.00  0.00    +0.000 C 
ENDBRANCH  21  22
BRANCH  19  24
ATOM     24  O   UNL     1      15.306  13.131  43.558  0.00  0.00    +0.000 OA
ATOM     25  C   UNL     1      14.686  11.998  44.211  0.00  0.00    +0.000 C 
ENDBRANCH  19  24
ENDBRANCH  15  16
ENDBRANCH   7  15
TORSDOF 6
ENDMDL
MODEL 19
REMARK VINA RESULT:    -5.055      2.865      7.711
REMARK INTER + INTRA:          -7.453
REMARK INTER:                  -6.551
REMARK INTRA:                  -0.902
REMARK UNBOUND:                -0.624
REMARK  Name = opt43.pdb
REMARK  10 active torsions:
REMARK  status: ('A' for Active; 'I' for Inactive)
REMARK    1  A    between atoms: O_1  and  C_2
REMARK    2  A    between atoms: O_1  and  C_3
REMARK    3  A    between atoms: C_4  and  O_6
REMARK    4  A    between atoms: O_6  and  C_9
REMARK    5  A    between atoms: C_11  and  C_14
REMARK    6  A    between atoms: C_14  and  C_16
REMARK    7  A    between atoms: C_19  and  O_21
REMARK    8  A    between atoms: O_21  and  C_23
REMARK    9  A    between atoms: C_22  and  O_24
REMARK   10  A    between atoms: O_24  and  C_25
REMARK                            x       y       z     vdW  Elec       q    Type
REMARK                         _______ _______ _______ _____ _____    ______ ____
ROOT
ATOM      1  C   UNL     1       7.812  16.358  41.368  0.00  0.00    +0.000 A 
ATOM      2  C   UNL     1       6.853  15.908  40.439  0.00  0.00    +0.000 A 
ATOM      3  C   UNL     1       8.250  15.491  42.381  0.00  0.00    +0.000 A 
ATOM      4  C   UNL     1       6.352  14.613  40.548  0.00  0.00    +0.000 A 
ATOM      5  C   UNL     1       7.743  14.189  42.487  0.00  0.00    +0.000 A 
ATOM      6  C   UNL     1       6.788  13.761  41.556  0.00  0.00    +0.000 A 
ATOM      7  C   UNL     1       8.132  13.289  43.498  0.00  0.00    +0.000 A 
ATOM      8  C   UNL     1       6.260  12.475  41.656  0.00  0.00    +0.000 A 
ATOM      9  N   UNL     1       7.624  12.034  43.583  0.00  0.00    +0.000 NA
ATOM     10  C   UNL     1       6.708  11.642  42.674  0.00  0.00    +0.000 A 
ENDROOT
BRANCH   2  11
ATOM     11  O   UNL     1       6.325  16.658  39.394  0.00  0.00    +0.000 OA
ATOM     12  C   UNL     1       6.878  16.768  38.062  0.00  0.00    +0.000 C 
ENDBRANCH   2  11
BRANCH   1  13
ATOM     13  O   UNL     1       8.289  17.662  41.297  0.00  0.00    +0.000 OA
ATOM     14  C   UNL     1       9.581  18.051  40.779  0.00  0.00    +0.000 C 
ENDBRANCH   1  13
BRANCH   7  15
ATOM     15  C   UNL     1       9.046  13.659  44.667  0.00  0.00    +0.000 C 
BRANCH  15  16
ATOM     16  C   UNL     1      10.508  13.641  44.237  0.00  0.00    +0.000 A 
ATOM     17  C   UNL     1      11.375  14.632  44.701  0.00  0.00    +0.000 A 
ATOM     18  C   UNL     1      10.988  12.670  43.361  0.00  0.00    +0.000 A 
ATOM     19  C   UNL     1      12.709  14.694  44.268  0.00  0.00    +0.000 A 
ATOM     20  C   UNL     1      12.314  12.707  42.940  0.00  0.00    +0.000 A 
ATOM     21  C   UNL     1      13.177  13.717  43.367  0.00  0.00    +0.000 A 
BRANCH  21  22
ATOM     22  O   UNL     1      14.463  13.667  42.844  0.00  0.00    +0.000 OA
ATOM     23  C   UNL     1      15.650  13.295  43.585  0.00  0.00    +0.000 C 
ENDBRANCH  21  22
BRANCH  19  24
ATOM     24  O   UNL     1      13.543  15.712  44.714  0.00  0.00    +0.000 OA
ATOM     25  C   UNL     1      13.634  17.019  44.099  0.00  0.00    +0.000 C 
ENDBRANCH  19  24
ENDBRANCH  15  16
ENDBRANCH   7  15
TORSDOF 6
ENDMDL
