MODEL 1
REMARK VINA RESULT:    -7.291      0.000      0.000
REMARK INTER + INTRA:          -8.143
REMARK INTER:                  -8.143
REMARK INTRA:                   0.000
REMARK UNBOUND:                 0.000
REMARK  Name = opt09.pdb
REMARK  4 active torsions:
REMARK  status: ('A' for Active; 'I' for Inactive)
REMARK    1  A    between atoms: C_8  and  O_12
REMARK    2  A    between atoms: C_11  and  O_17
REMARK    3  A    between atoms: C_13  and  O_18
REMARK    4  A    between atoms: C_16  and  O_21
REMARK                            x       y       z     vdW  Elec       q    Type
REMARK                         _______ _______ _______ _____ _____    ______ ____
ROOT
ATOM      1  O   UNL     1      17.762  14.482  45.559  0.00  0.00    +0.000 OA
ATOM      2  C   UNL     1      16.586  14.415  45.267  0.00  0.00    +0.000 A 
ATOM      3  O   UNL     1      16.012  13.224  44.952  0.00  0.00    +0.000 OA
ATOM      4  C   UNL     1      15.678  15.577  45.225  0.00  0.00    +0.000 A 
ATOM      5  C   UNL     1      14.682  13.050  44.616  0.00  0.00    +0.000 A 
ATOM      6  C   UNL     1      14.292  15.428  44.866  0.00  0.00    +0.000 A 
ATOM      7  C   UNL     1      16.108  16.927  45.532  0.00  0.00    +0.000 A 
ATOM      8  C   UNL     1      14.187  11.745  44.288  0.00  0.00    +0.000 A 
ATOM      9  C   UNL     1      13.798  14.175  44.563  0.00  0.00    +0.000 A 
ATOM     10  C   UNL     1      13.409  16.551  44.813  0.00  0.00    +0.000 A 
ATOM     11  C   UNL     1      15.240  18.022  45.487  0.00  0.00    +0.000 A 
ATOM     12  C   UNL     1      12.846  11.593  43.937  0.00  0.00    +0.000 A 
ATOM     13  C   UNL     1      12.412  14.029  44.203  0.00  0.00    +0.000 A 
ATOM     14  O   UNL     1      12.078  16.379  44.478  0.00  0.00    +0.000 OA
ATOM     15  C   UNL     1      13.901  17.857  45.137  0.00  0.00    +0.000 A 
ATOM     16  C   UNL     1      11.977  12.685  43.893  0.00  0.00    +0.000 A 
ATOM     17  C   UNL     1      11.505  15.190  44.161  0.00  0.00    +0.000 A 
ATOM     18  O   UNL     1      10.329  15.124  43.869  0.00  0.00    +0.000 OA
ENDROOT
BRANCH   8  19
ATOM     19  O   UNL     1      15.015  10.661  44.323  0.00  0.00    +0.000 OA
ATOM     20  H   UNL     1      15.065  10.295  43.420  0.00  0.00    +0.000 HD
ENDBRANCH   8  19
BRANCH  11  21
ATOM     21  O   UNL     1      15.696  19.270  45.788  0.00  0.00    +0.000 OA
ATOM     22  H   UNL     1      16.659  19.286  45.774  0.00  0.00    +0.000 HD
ENDBRANCH  11  21
BRANCH  12  23
ATOM     23  O   UNL     1      12.390  10.350  43.634  0.00  0.00    +0.000 OA
ATOM     24  H   UNL     1      11.782  10.101  44.360  0.00  0.00    +0.000 HD
ENDBRANCH  12  23
BRANCH  15  25
ATOM     25  O   UNL     1      13.044  18.910  45.090  0.00  0.00    +0.000 OA
ATOM     26  H   UNL     1      12.763  19.082  46.002  0.00  0.00    +0.000 HD
ENDBRANCH  15  25
TORSDOF 4
ENDMDL
MODEL 2
REMARK VINA RESULT:    -7.163      1.679      5.852
REMARK INTER + INTRA:          -8.000
REMARK INTER:                  -8.000
REMARK INTRA:                   0.000
REMARK UNBOUND:                 0.000
REMARK  Name = opt09.pdb
REMARK  4 active torsions:
REMARK  status: ('A' for Active; 'I' for Inactive)
REMARK    1  A    between atoms: C_8  and  O_12
REMARK    2  A    between atoms: C_11  and  O_17
REMARK    3  A    between atoms: C_13  and  O_18
REMARK    4  A    between atoms: C_16  and  O_21
REMARK                            x       y       z     vdW  Elec       q    Type
REMARK                         _______ _______ _______ _____ _____    ______ ____
ROOT
ATOM      1  O   UNL     1      10.121  11.349  42.775  0.00  0.00    +0.000 OA
ATOM      2  C   UNL     1      10.607  12.413  43.097  0.00  0.00    +0.000 A 
ATOM      3  O   UNL     1       9.905  13.570  42.964  0.00  0.00    +0.000 OA
ATOM      4  C   UNL     1      11.965  12.567  43.651  0.00  0.00    +0.000 A 
ATOM      5  C   UNL     1      10.372  14.824  43.312  0.00  0.00    +0.000 A 
ATOM      6  C   UNL     1      12.482  13.862  44.009  0.00  0.00    +0.000 A 
ATOM      7  C   UNL     1      12.861  11.449  43.866  0.00  0.00    +0.000 A 
ATOM      8  C   UNL     1       9.546  15.980  43.115  0.00  0.00    +0.000 A 
ATOM      9  C   UNL     1      11.693  14.981  43.839  0.00  0.00    +0.000 A 
ATOM     10  C   UNL     1      13.802  14.019  44.537  0.00  0.00    +0.000 A 
ATOM     11  C   UNL     1      14.148  11.605  44.391  0.00  0.00    +0.000 A 
ATOM     12  C   UNL     1      10.042  17.237  43.457  0.00  0.00    +0.000 A 
ATOM     13  C   UNL     1      12.213  16.274  44.197  0.00  0.00    +0.000 A 
ATOM     14  O   UNL     1      14.271  15.273  44.885  0.00  0.00    +0.000 OA
ATOM     15  C   UNL     1      14.631  12.867  44.731  0.00  0.00    +0.000 A 
ATOM     16  C   UNL     1      11.326  17.395  43.982  0.00  0.00    +0.000 A 
ATOM     17  C   UNL     1      13.571  16.428  44.750  0.00  0.00    +0.000 A 
ATOM     18  O   UNL     1      14.058  17.492  45.072  0.00  0.00    +0.000 OA
ENDROOT
BRANCH   8  19
ATOM     19  O   UNL     1       8.288  15.853  42.604  0.00  0.00    +0.000 OA
ATOM     20  H   UNL     1       8.106  14.901  42.491  0.00  0.00    +0.000 HD
ENDBRANCH   8  19
BRANCH  11  21
ATOM     21  O   UNL     1      14.949  10.518  44.576  0.00  0.00    +0.000 OA
ATOM     22  H   UNL     1      14.900  10.218  45.490  0.00  0.00    +0.000 HD
ENDBRANCH  11  21
BRANCH  12  23
ATOM     23  O   UNL     1       9.247  18.322  43.270  0.00  0.00    +0.000 OA
ATOM     24  H   UNL     1       8.378  18.091  43.659  0.00  0.00    +0.000 HD
ENDBRANCH  12  23
BRANCH  15  25
ATOM     25  O   UNL     1      15.878  13.036  45.242  0.00  0.00    +0.000 OA
ATOM     26  H   UNL     1      15.781  13.079  46.207  0.00  0.00    +0.000 HD
ENDBRANCH  15  25
TORSDOF 4
ENDMDL
MODEL 3
REMARK VINA RESULT:    -7.085      1.797      5.196
REMARK INTER + INTRA:          -7.913
REMARK INTER:                  -7.913
REMARK INTRA:                   0.000
REMARK UNBOUND:                 0.000
REMARK  Name = opt09.pdb
REMARK  4 active torsions:
REMARK  status: ('A' for Active; 'I' for Inactive)
REMARK    1  A    between atoms: C_8  and  O_12
REMARK    2  A    between atoms: C_11  and  O_17
REMARK    3  A    between atoms: C_13  and  O_18
REMARK    4  A    between atoms: C_16  and  O_21
REMARK                            x       y       z     vdW  Elec       q    Type
REMARK                         _______ _______ _______ _____ _____    ______ ____
ROOT
ATOM      1  O   UNL     1      10.610  10.387  42.520  0.00  0.00    +0.000 OA
ATOM      2  C   UNL     1      11.126  11.392  42.963  0.00  0.00    +0.000 A 
ATOM      3  O   UNL     1      12.402  11.373  43.430  0.00  0.00    +0.000 OA
ATOM      4  C   UNL     1      10.450  12.701  43.041  0.00  0.00    +0.000 A 
ATOM      5  C   UNL     1      13.073  12.468  43.944  0.00  0.00    +0.000 A 
ATOM      6  C   UNL     1      11.120  13.854  43.583  0.00  0.00    +0.000 A 
ATOM      7  C   UNL     1       9.090  12.915  42.590  0.00  0.00    +0.000 A 
ATOM      8  C   UNL     1      14.418  12.329  44.422  0.00  0.00    +0.000 A 
ATOM      9  C   UNL     1      12.419  13.739  44.032  0.00  0.00    +0.000 A 
ATOM     10  C   UNL     1      10.468  15.123  43.671  0.00  0.00    +0.000 A 
ATOM     11  C   UNL     1       8.458  14.160  42.669  0.00  0.00    +0.000 A 
ATOM     12  C   UNL     1      15.071  13.441  44.951  0.00  0.00    +0.000 A 
ATOM     13  C   UNL     1      13.086  14.893  44.575  0.00  0.00    +0.000 A 
ATOM     14  O   UNL     1      11.137  16.220  44.184  0.00  0.00    +0.000 OA
ATOM     15  C   UNL     1       9.123  15.264  43.198  0.00  0.00    +0.000 A 
ATOM     16  C   UNL     1      14.442  14.685  45.030  0.00  0.00    +0.000 A 
ATOM     17  C   UNL     1      12.411  16.202  44.653  0.00  0.00    +0.000 A 
ATOM     18  O   UNL     1      12.925  17.207  45.096  0.00  0.00    +0.000 OA
ENDROOT
BRANCH   8  19
ATOM     19  O   UNL     1      15.055  11.125  44.356  0.00  0.00    +0.000 OA
ATOM     20  H   UNL     1      16.012  11.298  44.267  0.00  0.00    +0.000 HD
ENDBRANCH   8  19
BRANCH  11  21
ATOM     21  O   UNL     1       7.177  14.307  42.228  0.00  0.00    +0.000 OA
ATOM     22  H   UNL     1       6.944  15.241  42.185  0.00  0.00    +0.000 HD
ENDBRANCH  11  21
BRANCH  12  23
ATOM     23  O   UNL     1      16.347  13.296  45.395  0.00  0.00    +0.000 OA
ATOM     24  H   UNL     1      16.850  12.909  44.649  0.00  0.00    +0.000 HD
ENDBRANCH  12  23
BRANCH  15  25
ATOM     25  O   UNL     1       8.524  16.482  43.281  0.00  0.00    +0.000 OA
ATOM     26  H   UNL     1       8.458  16.697  44.224  0.00  0.00    +0.000 HD
ENDBRANCH  15  25
TORSDOF 4
ENDMDL
MODEL 4
REMARK VINA RESULT:    -6.964      0.579      6.293
REMARK INTER + INTRA:          -7.779
REMARK INTER:                  -7.779
REMARK INTRA:                   0.000
REMARK UNBOUND:                 0.000
REMARK  Name = opt09.pdb
REMARK  4 active torsions:
REMARK  status: ('A' for Active; 'I' for Inactive)
REMARK    1  A    between atoms: C_8  and  O_12
REMARK    2  A    between atoms: C_11  and  O_17
REMARK    3  A    between atoms: C_13  and  O_18
REMARK    4  A    between atoms: C_16  and  O_21
REMARK                            x       y       z     vdW  Elec       q    Type
REMARK                         _______ _______ _______ _____ _____    ______ ____
ROOT
ATOM      1  O   UNL     1      10.781  15.785  43.678  0.00  0.00    +0.000 OA
ATOM      2  C   UNL     1      11.948  15.723  44.005  0.00  0.00    +0.000 A 
ATOM      3  O   UNL     1      12.649  16.848  44.307  0.00  0.00    +0.000 OA
ATOM      4  C   UNL     1      12.711  14.465  44.107  0.00  0.00    +0.000 A 
ATOM      5  C   UNL     1      13.976  16.874  44.696  0.00  0.00    +0.000 A 
ATOM      6  C   UNL     1      14.097  14.463  44.497  0.00  0.00    +0.000 A 
ATOM      7  C   UNL     1      12.133  13.166  43.826  0.00  0.00    +0.000 A 
ATOM      8  C   UNL     1      14.619  18.124  44.978  0.00  0.00    +0.000 A 
ATOM      9  C   UNL     1      14.724  15.657  44.787  0.00  0.00    +0.000 A 
ATOM     10  C   UNL     1      14.845  13.248  44.589  0.00  0.00    +0.000 A 
ATOM     11  C   UNL     1      12.865  11.979  43.926  0.00  0.00    +0.000 A 
ATOM     12  C   UNL     1      15.962  18.130  45.353  0.00  0.00    +0.000 A 
ATOM     13  C   UNL     1      16.111  15.652  45.175  0.00  0.00    +0.000 A 
ATOM     14  O   UNL     1      16.172  13.272  44.978  0.00  0.00    +0.000 OA
ATOM     15  C   UNL     1      14.206  11.998  44.303  0.00  0.00    +0.000 A 
ATOM     16  C   UNL     1      16.694  16.946  45.454  0.00  0.00    +0.000 A 
ATOM     17  C   UNL     1      16.874  14.395  45.278  0.00  0.00    +0.000 A 
ATOM     18  O   UNL     1      18.041  14.332  45.603  0.00  0.00    +0.000 OA
ENDROOT
BRANCH   8  19
ATOM     19  O   UNL     1      13.926  19.296  44.888  0.00  0.00    +0.000 OA
ATOM     20  H   UNL     1      13.321  19.226  44.125  0.00  0.00    +0.000 HD
ENDBRANCH   8  19
BRANCH  11  21
ATOM     21  O   UNL     1      12.272  10.783  43.652  0.00  0.00    +0.000 OA
ATOM     22  H   UNL     1      12.735  10.069  44.103  0.00  0.00    +0.000 HD
ENDBRANCH  11  21
BRANCH  12  23
ATOM     23  O   UNL     1      16.556  19.321  45.623  0.00  0.00    +0.000 OA
ATOM     24  H   UNL     1      16.753  19.728  44.754  0.00  0.00    +0.000 HD
ENDBRANCH  12  23
BRANCH  15  25
ATOM     25  O   UNL     1      14.932  10.854  44.406  0.00  0.00    +0.000 OA
ATOM     26  H   UNL     1      14.362  10.199  44.838  0.00  0.00    +0.000 HD
ENDBRANCH  15  25
TORSDOF 4
ENDMDL
MODEL 5
REMARK VINA RESULT:    -6.921      1.722      5.313
REMARK INTER + INTRA:          -7.730
REMARK INTER:                  -7.730
REMARK INTRA:                   0.000
REMARK UNBOUND:                 0.000
REMARK  Name = opt09.pdb
REMARK  4 active torsions:
REMARK  status: ('A' for Active; 'I' for Inactive)
REMARK    1  A    between atoms: C_8  and  O_12
REMARK    2  A    between atoms: C_11  and  O_17
REMARK    3  A    between atoms: C_13  and  O_18
REMARK    4  A    between atoms: C_16  and  O_21
REMARK                            x       y       z     vdW  Elec       q    Type
REMARK                         _______ _______ _______ _____ _____    ______ ____
ROOT
ATOM      1  O   UNL     1      15.712  15.620  45.020  0.00  0.00    +0.000 OA
ATOM      2  C   UNL     1      14.564  15.402  44.694  0.00  0.00    +0.000 A 
ATOM      3  O   UNL     1      13.678  16.421  44.539  0.00  0.00    +0.000 OA
ATOM      4  C   UNL     1      14.019  14.055  44.439  0.00  0.00    +0.000 A 
ATOM      5  C   UNL     1      12.355  16.270  44.164  0.00  0.00    +0.000 A 
ATOM      6  C   UNL     1      12.644  13.867  44.060  0.00  0.00    +0.000 A 
ATOM      7  C   UNL     1      14.813  12.848  44.553  0.00  0.00    +0.000 A 
ATOM      8  C   UNL     1      11.506  17.419  44.043  0.00  0.00    +0.000 A 
ATOM      9  C   UNL     1      11.818  14.964  43.925  0.00  0.00    +0.000 A 
ATOM     10  C   UNL     1      12.106  12.564  43.821  0.00  0.00    +0.000 A 
ATOM     11  C   UNL     1      14.287  11.576  44.309  0.00  0.00    +0.000 A 
ATOM     12  C   UNL     1      10.171  17.243  43.679  0.00  0.00    +0.000 A 
ATOM     13  C   UNL     1      10.442  14.773  43.547  0.00  0.00    +0.000 A 
ATOM     14  O   UNL     1      10.784  12.410  43.445  0.00  0.00    +0.000 OA
ATOM     15  C   UNL     1      12.952  11.414  43.944  0.00  0.00    +0.000 A 
ATOM     16  C   UNL     1       9.644  15.974  43.435  0.00  0.00    +0.000 A 
ATOM     17  C   UNL     1       9.898  13.427  43.292  0.00  0.00    +0.000 A 
ATOM     18  O   UNL     1       8.749  13.208  42.967  0.00  0.00    +0.000 OA
ENDROOT
BRANCH   8  19
ATOM     19  O   UNL     1      11.995  18.670  44.276  0.00  0.00    +0.000 OA
ATOM     20  H   UNL     1      12.960  18.594  44.404  0.00  0.00    +0.000 HD
ENDBRANCH   8  19
BRANCH  11  21
ATOM     21  O   UNL     1      15.079  10.473  44.429  0.00  0.00    +0.000 OA
ATOM     22  H   UNL     1      14.551   9.709  44.685  0.00  0.00    +0.000 HD
ENDBRANCH  11  21
BRANCH  12  23
ATOM     23  O   UNL     1       9.379  18.341  43.564  0.00  0.00    +0.000 OA
ATOM     24  H   UNL     1       8.984  18.483  44.448  0.00  0.00    +0.000 HD
ENDBRANCH  12  23
BRANCH  15  25
ATOM     25  O   UNL     1      12.425  10.185  43.703  0.00  0.00    +0.000 OA
ATOM     26  H   UNL     1      12.143   9.829  44.560  0.00  0.00    +0.000 HD
ENDBRANCH  15  25
TORSDOF 4
ENDMDL
MODEL 6
REMARK VINA RESULT:    -6.909      1.773      4.045
REMARK INTER + INTRA:          -7.717
REMARK INTER:                  -7.717
REMARK INTRA:                   0.000
REMARK UNBOUND:                 0.000
REMARK  Name = opt09.pdb
REMARK  4 active torsions:
REMARK  status: ('A' for Active; 'I' for Inactive)
REMARK    1  A    between atoms: C_8  and  O_12
REMARK    2  A    between atoms: C_11  and  O_17
REMARK    3  A    between atoms: C_13  and  O_18
REMARK    4  A    between atoms: C_16  and  O_21
REMARK                            x       y       z     vdW  Elec       q    Type
REMARK                         _______ _______ _______ _____ _____    ______ ____
ROOT
ATOM      1  O   UNL     1      13.767  17.509  44.748  0.00  0.00    +0.000 OA
ATOM      2  C   UNL     1      13.309  16.418  44.476  0.00  0.00    +0.000 A 
ATOM      3  O   UNL     1      14.053  15.291  44.630  0.00  0.00    +0.000 OA
ATOM      4  C   UNL     1      11.942  16.201  43.966  0.00  0.00    +0.000 A 
ATOM      5  C   UNL     1      13.614  14.009  44.355  0.00  0.00    +0.000 A 
ATOM      6  C   UNL     1      11.463  14.878  43.659  0.00  0.00    +0.000 A 
ATOM      7  C   UNL     1      11.002  17.280  43.739  0.00  0.00    +0.000 A 
ATOM      8  C   UNL     1      14.493  12.891  44.543  0.00  0.00    +0.000 A 
ATOM      9  C   UNL     1      12.292  13.792  43.849  0.00  0.00    +0.000 A 
ATOM     10  C   UNL     1      10.143  14.661  43.155  0.00  0.00    +0.000 A 
ATOM     11  C   UNL     1       9.709  17.063  43.255  0.00  0.00    +0.000 A 
ATOM     12  C   UNL     1      14.036  11.609  44.244  0.00  0.00    +0.000 A 
ATOM     13  C   UNL     1      11.811  12.471  43.540  0.00  0.00    +0.000 A 
ATOM     14  O   UNL     1       9.702  13.379  42.879  0.00  0.00    +0.000 OA
ATOM     15  C   UNL     1       9.264  15.776  42.962  0.00  0.00    +0.000 A 
ATOM     16  C   UNL     1      12.744  11.390  43.761  0.00  0.00    +0.000 A 
ATOM     17  C   UNL     1      10.445  12.253  43.031  0.00  0.00    +0.000 A 
ATOM     18  O   UNL     1       9.986  11.163  42.757  0.00  0.00    +0.000 OA
ENDROOT
BRANCH   8  19
ATOM     19  O   UNL     1      15.759  13.078  45.014  0.00  0.00    +0.000 OA
ATOM     20  H   UNL     1      16.239  12.233  44.919  0.00  0.00    +0.000 HD
ENDBRANCH   8  19
BRANCH  11  21
ATOM     21  O   UNL     1       8.865  18.115  43.061  0.00  0.00    +0.000 OA
ATOM     22  H   UNL     1       7.961  17.801  42.945  0.00  0.00    +0.000 HD
ENDBRANCH  11  21
BRANCH  12  23
ATOM     23  O   UNL     1      14.877  10.559  44.433  0.00  0.00    +0.000 OA
ATOM     24  H   UNL     1      15.679  10.928  44.857  0.00  0.00    +0.000 HD
ENDBRANCH  12  23
BRANCH  15  25
ATOM     25  O   UNL     1       8.010  15.547  42.491  0.00  0.00    +0.000 OA
ATOM     26  H   UNL     1       8.109  15.077  41.649  0.00  0.00    +0.000 HD
ENDBRANCH  15  25
TORSDOF 4
ENDMDL
MODEL 7
REMARK VINA RESULT:    -6.859      1.451      5.165
REMARK INTER + INTRA:          -7.661
REMARK INTER:                  -7.661
REMARK INTRA:                   0.000
REMARK UNBOUND:                 0.000
REMARK  Name = opt09.pdb
REMARK  4 active torsions:
REMARK  status: ('A' for Active; 'I' for Inactive)
REMARK    1  A    between atoms: C_8  and  O_12
REMARK    2  A    between atoms: C_11  and  O_17
REMARK    3  A    between atoms: C_13  and  O_18
REMARK    4  A    between atoms: C_16  and  O_21
REMARK                            x       y       z     vdW  Elec       q    Type
REMARK                         _______ _______ _______ _____ _____    ______ ____
ROOT
ATOM      1  O   UNL     1      12.202  18.404  44.283  0.00  0.00    +0.000 OA
ATOM      2  C   UNL     1      12.616  17.266  44.355  0.00  0.00    +0.000 A 
ATOM      3  O   UNL     1      13.925  17.016  44.622  0.00  0.00    +0.000 OA
ATOM      4  C   UNL     1      11.776  16.068  44.166  0.00  0.00    +0.000 A 
ATOM      5  C   UNL     1      14.484  15.755  44.731  0.00  0.00    +0.000 A 
ATOM      6  C   UNL     1      12.334  14.744  44.260  0.00  0.00    +0.000 A 
ATOM      7  C   UNL     1      10.358  16.135  43.876  0.00  0.00    +0.000 A 
ATOM      8  C   UNL     1      15.885  15.611  45.004  0.00  0.00    +0.000 A 
ATOM      9  C   UNL     1      13.677  14.589  44.538  0.00  0.00    +0.000 A 
ATOM     10  C   UNL     1      11.528  13.579  44.069  0.00  0.00    +0.000 A 
ATOM     11  C   UNL     1       9.571  14.993  43.698  0.00  0.00    +0.000 A 
ATOM     12  C   UNL     1      16.432  14.331  45.094  0.00  0.00    +0.000 A 
ATOM     13  C   UNL     1      14.232  13.264  44.631  0.00  0.00    +0.000 A 
ATOM     14  O   UNL     1      12.085  12.317  44.177  0.00  0.00    +0.000 OA
ATOM     15  C   UNL     1      10.130  13.721  43.792  0.00  0.00    +0.000 A 
ATOM     16  C   UNL     1      15.647  13.190  44.917  0.00  0.00    +0.000 A 
ATOM     17  C   UNL     1      13.393  12.067  44.442  0.00  0.00    +0.000 A 
ATOM     18  O   UNL     1      13.807  10.928  44.513  0.00  0.00    +0.000 OA
ENDROOT
BRANCH   8  19
ATOM     19  O   UNL     1      16.673  16.709  45.181  0.00  0.00    +0.000 OA
ATOM     20  H   UNL     1      17.239  16.548  45.960  0.00  0.00    +0.000 HD
ENDBRANCH   8  19
BRANCH  11  21
ATOM     21  O   UNL     1       8.241  15.114  43.428  0.00  0.00    +0.000 OA
ATOM     22  H   UNL     1       7.931  14.350  42.929  0.00  0.00    +0.000 HD
ENDBRANCH  11  21
BRANCH  12  23
ATOM     23  O   UNL     1      17.759  14.209  45.359  0.00  0.00    +0.000 OA
ATOM     24  H   UNL     1      18.060  13.418  44.865  0.00  0.00    +0.000 HD
ENDBRANCH  12  23
BRANCH  15  25
ATOM     25  O   UNL     1       9.379  12.601  43.623  0.00  0.00    +0.000 OA
ATOM     26  H   UNL     1       9.099  12.589  42.694  0.00  0.00    +0.000 HD
ENDBRANCH  15  25
TORSDOF 4
ENDMDL
MODEL 8
REMARK VINA RESULT:    -6.797      1.424      3.914
REMARK INTER + INTRA:          -7.591
REMARK INTER:                  -7.591
REMARK INTRA:                   0.000
REMARK UNBOUND:                 0.000
REMARK  Name = opt09.pdb
REMARK  4 active torsions:
REMARK  status: ('A' for Active; 'I' for Inactive)
REMARK    1  A    between atoms: C_8  and  O_12
REMARK    2  A    between atoms: C_11  and  O_17
REMARK    3  A    between atoms: C_13  and  O_18
REMARK    4  A    between atoms: C_16  and  O_21
REMARK                            x       y       z     vdW  Elec       q    Type
REMARK                         _______ _______ _______ _____ _____    ______ ____
ROOT
ATOM      1  O   UNL     1      13.892  11.117  44.542  0.00  0.00    +0.000 OA
ATOM      2  C   UNL     1      13.495  12.263  44.507  0.00  0.00    +0.000 A 
ATOM      3  O   UNL     1      12.184  12.541  44.279  0.00  0.00    +0.000 OA
ATOM      4  C   UNL     1      14.360  13.443  44.702  0.00  0.00    +0.000 A 
ATOM      5  C   UNL     1      11.641  13.812  44.231  0.00  0.00    +0.000 A 
ATOM      6  C   UNL     1      13.824  14.777  44.644  0.00  0.00    +0.000 A 
ATOM      7  C   UNL     1      15.782  13.345  44.958  0.00  0.00    +0.000 A 
ATOM      8  C   UNL     1      10.242  13.987  43.970  0.00  0.00    +0.000 A 
ATOM      9  C   UNL     1      12.477  14.961  44.408  0.00  0.00    +0.000 A 
ATOM     10  C   UNL     1      14.658  15.925  44.822  0.00  0.00    +0.000 A 
ATOM     11  C   UNL     1      16.594  14.469  45.140  0.00  0.00    +0.000 A 
ATOM     12  C   UNL     1       9.717  15.278  43.909  0.00  0.00    +0.000 A 
ATOM     13  C   UNL     1      11.944  16.297  44.350  0.00  0.00    +0.000 A 
ATOM     14  O   UNL     1      14.117  17.197  44.774  0.00  0.00    +0.000 OA
ATOM     15  C   UNL     1      16.056  15.753  45.079  0.00  0.00    +0.000 A 
ATOM     16  C   UNL     1      10.525  16.402  44.092  0.00  0.00    +0.000 A 
ATOM     17  C   UNL     1      12.808  17.476  44.544  0.00  0.00    +0.000 A 
ATOM     18  O   UNL     1      12.412  18.622  44.509  0.00  0.00    +0.000 OA
ENDROOT
BRANCH   8  19
ATOM     19  O   UNL     1       9.430  12.907  43.788  0.00  0.00    +0.000 OA
ATOM     20  H   UNL     1       9.667  12.239  44.459  0.00  0.00    +0.000 HD
ENDBRANCH   8  19
BRANCH  11  21
ATOM     21  O   UNL     1      17.927  14.320  45.380  0.00  0.00    +0.000 OA
ATOM     22  H   UNL     1      18.120  14.490  46.309  0.00  0.00    +0.000 HD
ENDBRANCH  11  21
BRANCH  12  23
ATOM     23  O   UNL     1       8.389  15.429  43.666  0.00  0.00    +0.000 OA
ATOM     24  H   UNL     1       8.263  16.372  43.432  0.00  0.00    +0.000 HD
ENDBRANCH  12  23
BRANCH  15  25
ATOM     25  O   UNL     1      16.830  16.856  45.255  0.00  0.00    +0.000 OA
ATOM     26  H   UNL     1      17.081  16.875  46.191  0.00  0.00    +0.000 HD
ENDBRANCH  15  25
TORSDOF 4
ENDMDL
MODEL 9
REMARK VINA RESULT:    -6.789      1.882      5.125
REMARK INTER + INTRA:          -7.583
REMARK INTER:                  -7.583
REMARK INTRA:                   0.000
REMARK UNBOUND:                 0.000
REMARK  Name = opt09.pdb
REMARK  4 active torsions:
REMARK  status: ('A' for Active; 'I' for Inactive)
REMARK    1  A    between atoms: C_8  and  O_12
REMARK    2  A    between atoms: C_11  and  O_17
REMARK    3  A    between atoms: C_13  and  O_18
REMARK    4  A    between atoms: C_16  and  O_21
REMARK                            x       y       z     vdW  Elec       q    Type
REMARK                         _______ _______ _______ _____ _____    ______ ____
ROOT
ATOM      1  O   UNL     1      13.139  17.354  44.462  0.00  0.00    +0.000 OA
ATOM      2  C   UNL     1      12.621  16.324  44.082  0.00  0.00    +0.000 A 
ATOM      3  O   UNL     1      11.412  16.340  43.462  0.00  0.00    +0.000 OA
ATOM      4  C   UNL     1      13.224  14.988  44.244  0.00  0.00    +0.000 A 
ATOM      5  C   UNL     1      10.751  15.221  42.988  0.00  0.00    +0.000 A 
ATOM      6  C   UNL     1      12.553  13.805  43.773  0.00  0.00    +0.000 A 
ATOM      7  C   UNL     1      14.509  14.773  44.878  0.00  0.00    +0.000 A 
ATOM      8  C   UNL     1       9.468  15.355  42.360  0.00  0.00    +0.000 A 
ATOM      9  C   UNL     1      11.326  13.920  43.152  0.00  0.00    +0.000 A 
ATOM     10  C   UNL     1      13.127  12.506  43.935  0.00  0.00    +0.000 A 
ATOM     11  C   UNL     1      15.072  13.502  45.028  0.00  0.00    +0.000 A 
ATOM     12  C   UNL     1       8.811  14.213  41.904  0.00  0.00    +0.000 A 
ATOM     13  C   UNL     1      10.656  12.735  42.683  0.00  0.00    +0.000 A 
ATOM     14  O   UNL     1      12.467  11.385  43.462  0.00  0.00    +0.000 OA
ATOM     15  C   UNL     1      14.405  12.369  44.566  0.00  0.00    +0.000 A 
ATOM     16  C   UNL     1       9.372  12.943  42.051  0.00  0.00    +0.000 A 
ATOM     17  C   UNL     1      11.258  11.399  42.844  0.00  0.00    +0.000 A 
ATOM     18  O   UNL     1      10.741  10.369  42.465  0.00  0.00    +0.000 OA
ENDROOT
BRANCH   8  19
ATOM     19  O   UNL     1       8.899  16.584  42.203  0.00  0.00    +0.000 OA
ATOM     20  H   UNL     1       8.816  16.754  41.246  0.00  0.00    +0.000 HD
ENDBRANCH   8  19
BRANCH  11  21
ATOM     21  O   UNL     1      16.285  13.356  45.631  0.00  0.00    +0.000 OA
ATOM     22  H   UNL     1      16.185  13.372  46.590  0.00  0.00    +0.000 HD
ENDBRANCH  11  21
BRANCH  12  23
ATOM     23  O   UNL     1       7.600  14.355  41.305  0.00  0.00    +0.000 OA
ATOM     24  H   UNL     1       6.949  13.947  41.913  0.00  0.00    +0.000 HD
ENDBRANCH  12  23
BRANCH  15  25
ATOM     25  O   UNL     1      14.938  11.126  44.702  0.00  0.00    +0.000 OA
ATOM     26  H   UNL     1      15.632  11.192  45.377  0.00  0.00    +0.000 HD
ENDBRANCH  15  25
TORSDOF 4
ENDMDL
MODEL 10
REMARK VINA RESULT:    -6.781      1.458      3.497
REMARK INTER + INTRA:          -7.574
REMARK INTER:                  -7.574
REMARK INTRA:                   0.000
REMARK UNBOUND:                 0.000
REMARK  Name = opt09.pdb
REMARK  4 active torsions:
REMARK  status: ('A' for Active; 'I' for Inactive)
REMARK    1  A    between atoms: C_8  and  O_12
REMARK    2  A    between atoms: C_11  and  O_17
REMARK    3  A    between atoms: C_13  and  O_18
REMARK    4  A    between atoms: C_16  and  O_21
REMARK                            x       y       z     vdW  Elec       q    Type
REMARK                         _______ _______ _______ _____ _____    ______ ____
ROOT
ATOM      1  O   UNL     1      14.491  10.536  44.350  0.00  0.00    +0.000 OA
ATOM      2  C   UNL     1      13.842  11.552  44.216  0.00  0.00    +0.000 A 
ATOM      3  O   UNL     1      12.545  11.503  43.810  0.00  0.00    +0.000 OA
ATOM      4  C   UNL     1      14.366  12.907  44.470  0.00  0.00    +0.000 A 
ATOM      5  C   UNL     1      11.727  12.605  43.638  0.00  0.00    +0.000 A 
ATOM      6  C   UNL     1      13.542  14.073  44.287  0.00  0.00    +0.000 A 
ATOM      7  C   UNL     1      15.724  13.159  44.911  0.00  0.00    +0.000 A 
ATOM      8  C   UNL     1      10.375  12.435  43.192  0.00  0.00    +0.000 A 
ATOM      9  C   UNL     1      12.234  13.923  43.873  0.00  0.00    +0.000 A 
ATOM     10  C   UNL     1      14.047  15.390  44.522  0.00  0.00    +0.000 A 
ATOM     11  C   UNL     1      16.212  14.447  45.148  0.00  0.00    +0.000 A 
ATOM     12  C   UNL     1       9.572  13.559  43.009  0.00  0.00    +0.000 A 
ATOM     13  C   UNL     1      11.412  15.090  43.689  0.00  0.00    +0.000 A 
ATOM     14  O   UNL     1      13.230  16.493  44.351  0.00  0.00    +0.000 OA
ATOM     15  C   UNL     1      15.398  15.563  44.964  0.00  0.00    +0.000 A 
ATOM     16  C   UNL     1      10.057  14.847  43.247  0.00  0.00    +0.000 A 
ATOM     17  C   UNL     1      11.936  16.445  43.943  0.00  0.00    +0.000 A 
ATOM     18  O   UNL     1      11.287  17.462  43.808  0.00  0.00    +0.000 OA
ENDROOT
BRANCH   8  19
ATOM     19  O   UNL     1       9.876  11.188  42.953  0.00  0.00    +0.000 OA
ATOM     20  H   UNL     1      10.391  10.796  42.223  0.00  0.00    +0.000 HD
ENDBRANCH   8  19
BRANCH  11  21
ATOM     21  O   UNL     1      17.497  14.627  45.564  0.00  0.00    +0.000 OA
ATOM     22  H   UNL     1      17.764  13.907  46.147  0.00  0.00    +0.000 HD
ENDBRANCH  11  21
BRANCH  12  23
ATOM     23  O   UNL     1       8.291  13.383  42.591  0.00  0.00    +0.000 OA
ATOM     24  H   UNL     1       8.228  13.826  41.721  0.00  0.00    +0.000 HD
ENDBRANCH  12  23
BRANCH  15  25
ATOM     25  O   UNL     1      15.856  16.822  45.191  0.00  0.00    +0.000 OA
ATOM     26  H   UNL     1      16.643  16.938  44.635  0.00  0.00    +0.000 HD
ENDBRANCH  15  25
TORSDOF 4
ENDMDL
MODEL 11
REMARK VINA RESULT:    -6.704      1.793      4.991
REMARK INTER + INTRA:          -7.487
REMARK INTER:                  -7.487
REMARK INTRA:                   0.000
REMARK UNBOUND:                 0.000
REMARK  Name = opt09.pdb
REMARK  4 active torsions:
REMARK  status: ('A' for Active; 'I' for Inactive)
REMARK    1  A    between atoms: C_8  and  O_12
REMARK    2  A    between atoms: C_11  and  O_17
REMARK    3  A    between atoms: C_13  and  O_18
REMARK    4  A    between atoms: C_16  and  O_21
REMARK                            x       y       z     vdW  Elec       q    Type
REMARK                         _______ _______ _______ _____ _____    ______ ____
ROOT
ATOM      1  O   UNL     1       9.889  11.136  42.704  0.00  0.00    +0.000 OA
ATOM      2  C   UNL     1      10.617  12.015  43.116  0.00  0.00    +0.000 A 
ATOM      3  O   UNL     1      11.882  11.736  43.527  0.00  0.00    +0.000 OA
ATOM      4  C   UNL     1      10.225  13.433  43.213  0.00  0.00    +0.000 A 
ATOM      5  C   UNL     1      12.784  12.671  44.002  0.00  0.00    +0.000 A 
ATOM      6  C   UNL     1      11.139  14.426  43.717  0.00  0.00    +0.000 A 
ATOM      7  C   UNL     1       8.919  13.921  42.821  0.00  0.00    +0.000 A 
ATOM      8  C   UNL     1      14.092  12.260  44.422  0.00  0.00    +0.000 A 
ATOM      9  C   UNL     1      12.406  14.048  44.110  0.00  0.00    +0.000 A 
ATOM     10  C   UNL     1      10.763  15.801  43.823  0.00  0.00    +0.000 A 
ATOM     11  C   UNL     1       8.557  15.268  42.918  0.00  0.00    +0.000 A 
ATOM     12  C   UNL     1      14.981  13.216  44.913  0.00  0.00    +0.000 A 
ATOM     13  C   UNL     1      13.317  15.042  44.613  0.00  0.00    +0.000 A 
ATOM     14  O   UNL     1      11.663  16.737  44.298  0.00  0.00    +0.000 OA
ATOM     15  C   UNL     1       9.455  16.213  43.409  0.00  0.00    +0.000 A 
ATOM     16  C   UNL     1      14.622  14.562  45.010  0.00  0.00    +0.000 A 
ATOM     17  C   UNL     1      12.926  16.460  44.711  0.00  0.00    +0.000 A 
ATOM     18  O   UNL     1      13.653  17.339  45.124  0.00  0.00    +0.000 OA
ENDROOT
BRANCH   8  19
ATOM     19  O   UNL     1      14.468  10.952  44.337  0.00  0.00    +0.000 OA
ATOM     20  H   UNL     1      14.042  10.471  45.072  0.00  0.00    +0.000 HD
ENDBRANCH   8  19
BRANCH  11  21
ATOM     21  O   UNL     1       7.314  15.673  42.532  0.00  0.00    +0.000 OA
ATOM     22  H   UNL     1       6.639  15.178  43.009  0.00  0.00    +0.000 HD
ENDBRANCH  11  21
BRANCH  12  23
ATOM     23  O   UNL     1      16.219  12.814  45.301  0.00  0.00    +0.000 OA
ATOM     24  H   UNL     1      16.116  12.466  46.211  0.00  0.00    +0.000 HD
ENDBRANCH  12  23
BRANCH  15  25
ATOM     25  O   UNL     1       9.120  17.527  43.509  0.00  0.00    +0.000 OA
ATOM     26  H   UNL     1       9.616  17.885  44.262  0.00  0.00    +0.000 HD
ENDBRANCH  15  25
TORSDOF 4
ENDMDL
MODEL 12
REMARK VINA RESULT:    -6.650      1.110      3.737
REMARK INTER + INTRA:          -7.428
REMARK INTER:                  -7.428
REMARK INTRA:                   0.000
REMARK UNBOUND:                 0.000
REMARK  Name = opt09.pdb
REMARK  4 active torsions:
REMARK  status: ('A' for Active; 'I' for Inactive)
REMARK    1  A    between atoms: C_8  and  O_12
REMARK    2  A    between atoms: C_11  and  O_17
REMARK    3  A    between atoms: C_13  and  O_18
REMARK    4  A    between atoms: C_16  and  O_21
REMARK                            x       y       z     vdW  Elec       q    Type
REMARK                         _______ _______ _______ _____ _____    ______ ____
ROOT
ATOM      1  O   UNL     1      10.443  16.027  43.300  0.00  0.00    +0.000 OA
ATOM      2  C   UNL     1      11.537  15.644  43.659  0.00  0.00    +0.000 A 
ATOM      3  O   UNL     1      11.852  14.322  43.645  0.00  0.00    +0.000 OA
ATOM      4  C   UNL     1      12.610  16.538  44.134  0.00  0.00    +0.000 A 
ATOM      5  C   UNL     1      13.073  13.795  44.027  0.00  0.00    +0.000 A 
ATOM      6  C   UNL     1      13.885  16.016  44.550  0.00  0.00    +0.000 A 
ATOM      7  C   UNL     1      12.460  17.977  44.216  0.00  0.00    +0.000 A 
ATOM      8  C   UNL     1      13.290  12.378  43.984  0.00  0.00    +0.000 A 
ATOM      9  C   UNL     1      14.114  14.656  44.499  0.00  0.00    +0.000 A 
ATOM     10  C   UNL     1      14.926  16.876  45.020  0.00  0.00    +0.000 A 
ATOM     11  C   UNL     1      13.483  18.816  44.669  0.00  0.00    +0.000 A 
ATOM     12  C   UNL     1      14.522  11.866  44.388  0.00  0.00    +0.000 A 
ATOM     13  C   UNL     1      15.390  14.137  44.917  0.00  0.00    +0.000 A 
ATOM     14  O   UNL     1      16.148  16.351  45.402  0.00  0.00    +0.000 OA
ATOM     15  C   UNL     1      14.710  18.291  45.068  0.00  0.00    +0.000 A 
ATOM     16  C   UNL     1      15.545  12.702  44.839  0.00  0.00    +0.000 A 
ATOM     17  C   UNL     1      16.463  15.030  45.391  0.00  0.00    +0.000 A 
ATOM     18  O   UNL     1      17.557  14.648  45.751  0.00  0.00    +0.000 OA
ENDROOT
BRANCH   8  19
ATOM     19  O   UNL     1      12.307  11.539  43.548  0.00  0.00    +0.000 OA
ATOM     20  H   UNL     1      12.212  10.824  44.205  0.00  0.00    +0.000 HD
ENDBRANCH   8  19
BRANCH  11  21
ATOM     21  O   UNL     1      13.289  20.163  44.725  0.00  0.00    +0.000 OA
ATOM     22  H   UNL     1      12.693  20.445  44.022  0.00  0.00    +0.000 HD
ENDBRANCH  11  21
BRANCH  12  23
ATOM     23  O   UNL     1      14.716  10.522  44.337  0.00  0.00    +0.000 OA
ATOM     24  H   UNL     1      13.898  10.118  44.693  0.00  0.00    +0.000 HD
ENDBRANCH  12  23
BRANCH  15  25
ATOM     25  O   UNL     1      15.716  19.092  45.509  0.00  0.00    +0.000 OA
ATOM     26  H   UNL     1      15.661  19.916  45.000  0.00  0.00    +0.000 HD
ENDBRANCH  15  25
TORSDOF 4
ENDMDL
MODEL 13
REMARK VINA RESULT:    -6.424      1.626      4.272
REMARK INTER + INTRA:          -7.175
REMARK INTER:                  -7.175
REMARK INTRA:                   0.000
REMARK UNBOUND:                 0.000
REMARK  Name = opt09.pdb
REMARK  4 active torsions:
REMARK  status: ('A' for Active; 'I' for Inactive)
REMARK    1  A    between atoms: C_8  and  O_12
REMARK    2  A    between atoms: C_11  and  O_17
REMARK    3  A    between atoms: C_13  and  O_18
REMARK    4  A    between atoms: C_16  and  O_21
REMARK                            x       y       z     vdW  Elec       q    Type
REMARK                         _______ _______ _______ _____ _____    ______ ____
ROOT
ATOM      1  O   UNL     1       8.909  13.915  42.393  0.00  0.00    +0.000 OA
ATOM      2  C   UNL     1      10.025  13.977  42.864  0.00  0.00    +0.000 A 
ATOM      3  O   UNL     1      10.758  12.851  43.071  0.00  0.00    +0.000 OA
ATOM      4  C   UNL     1      10.690  15.236  43.250  0.00  0.00    +0.000 A 
ATOM      5  C   UNL     1      12.039  12.826  43.594  0.00  0.00    +0.000 A 
ATOM      6  C   UNL     1      12.016  15.238  43.808  0.00  0.00    +0.000 A 
ATOM      7  C   UNL     1      10.066  16.536  43.101  0.00  0.00    +0.000 A 
ATOM      8  C   UNL     1      12.714  11.574  43.782  0.00  0.00    +0.000 A 
ATOM      9  C   UNL     1      12.684  14.043  43.980  0.00  0.00    +0.000 A 
ATOM     10  C   UNL     1      12.663  16.454  44.194  0.00  0.00    +0.000 A 
ATOM     11  C   UNL     1      10.704  17.724  43.471  0.00  0.00    +0.000 A 
ATOM     12  C   UNL     1      13.998  11.569  44.325  0.00  0.00    +0.000 A 
ATOM     13  C   UNL     1      14.011  14.048  44.540  0.00  0.00    +0.000 A 
ATOM     14  O   UNL     1      13.943  16.430  44.716  0.00  0.00    +0.000 OA
ATOM     15  C   UNL     1      11.989  17.705  44.011  0.00  0.00    +0.000 A 
ATOM     16  C   UNL     1      14.637  12.754  44.694  0.00  0.00    +0.000 A 
ATOM     17  C   UNL     1      14.675  15.306  44.926  0.00  0.00    +0.000 A 
ATOM     18  O   UNL     1      15.791  15.369  45.398  0.00  0.00    +0.000 OA
ENDROOT
BRANCH   8  19
ATOM     19  O   UNL     1      12.112  10.402  43.429  0.00  0.00    +0.000 OA
ATOM     20  H   UNL     1      11.477  10.596  42.714  0.00  0.00    +0.000 HD
ENDBRANCH   8  19
BRANCH  11  21
ATOM     21  O   UNL     1      10.073  18.920  43.307  0.00  0.00    +0.000 OA
ATOM     22  H   UNL     1      10.236  19.266  42.423  0.00  0.00    +0.000 HD
ENDBRANCH  11  21
BRANCH  12  23
ATOM     23  O   UNL     1      14.628  10.377  44.492  0.00  0.00    +0.000 OA
ATOM     24  H   UNL     1      14.501  10.134  45.433  0.00  0.00    +0.000 HD
ENDBRANCH  12  23
BRANCH  15  25
ATOM     25  O   UNL     1      12.624  18.850  44.375  0.00  0.00    +0.000 OA
ATOM     26  H   UNL     1      13.556  18.742  44.130  0.00  0.00    +0.000 HD
ENDBRANCH  15  25
TORSDOF 4
ENDMDL
MODEL 14
REMARK VINA RESULT:    -6.384      1.618      5.644
REMARK INTER + INTRA:          -7.130
REMARK INTER:                  -7.130
REMARK INTRA:                   0.000
REMARK UNBOUND:                 0.000
REMARK  Name = opt09.pdb
REMARK  4 active torsions:
REMARK  status: ('A' for Active; 'I' for Inactive)
REMARK    1  A    between atoms: C_8  and  O_12
REMARK    2  A    between atoms: C_11  and  O_17
REMARK    3  A    between atoms: C_13  and  O_18
REMARK    4  A    between atoms: C_16  and  O_21
REMARK                            x       y       z     vdW  Elec       q    Type
REMARK                         _______ _______ _______ _____ _____    ______ ____
ROOT
ATOM      1  O   UNL     1      11.716  17.455  42.908  0.00  0.00    +0.000 OA
ATOM      2  C   UNL     1      12.262  16.424  43.239  0.00  0.00    +0.000 A 
ATOM      3  O   UNL     1      13.506  16.439  43.788  0.00  0.00    +0.000 OA
ATOM      4  C   UNL     1      11.661  15.086  43.090  0.00  0.00    +0.000 A 
ATOM      5  C   UNL     1      14.202  15.317  44.203  0.00  0.00    +0.000 A 
ATOM      6  C   UNL     1      12.367  13.901  43.500  0.00  0.00    +0.000 A 
ATOM      7  C   UNL     1      10.342  14.871  42.528  0.00  0.00    +0.000 A 
ATOM      8  C   UNL     1      15.517  15.451  44.758  0.00  0.00    +0.000 A 
ATOM      9  C   UNL     1      13.627  14.015  44.050  0.00  0.00    +0.000 A 
ATOM     10  C   UNL     1      11.794  12.599  43.349  0.00  0.00    +0.000 A 
ATOM     11  C   UNL     1       9.781  13.598  42.389  0.00  0.00    +0.000 A 
ATOM     12  C   UNL     1      16.208  14.307  45.154  0.00  0.00    +0.000 A 
ATOM     13  C   UNL     1      14.332  12.828  44.459  0.00  0.00    +0.000 A 
ATOM     14  O   UNL     1      12.488  11.477  43.763  0.00  0.00    +0.000 OA
ATOM     15  C   UNL     1      10.481  12.463  42.792  0.00  0.00    +0.000 A 
ATOM     16  C   UNL     1      15.649  13.035  45.018  0.00  0.00    +0.000 A 
ATOM     17  C   UNL     1      13.731  11.490  44.310  0.00  0.00    +0.000 A 
ATOM     18  O   UNL     1      14.277  10.458  44.640  0.00  0.00    +0.000 OA
ENDROOT
BRANCH   8  19
ATOM     19  O   UNL     1      16.087  16.682  44.902  0.00  0.00    +0.000 OA
ATOM     20  H   UNL     1      16.173  16.861  45.857  0.00  0.00    +0.000 HD
ENDBRANCH   8  19
BRANCH  11  21
ATOM     21  O   UNL     1       8.536  13.453  41.855  0.00  0.00    +0.000 OA
ATOM     22  H   UNL     1       8.276  14.256  41.391  0.00  0.00    +0.000 HD
ENDBRANCH  11  21
BRANCH  12  23
ATOM     23  O   UNL     1      17.451  14.449  45.683  0.00  0.00    +0.000 OA
ATOM     24  H   UNL     1      17.985  14.906  45.001  0.00  0.00    +0.000 HD
ENDBRANCH  12  23
BRANCH  15  25
ATOM     25  O   UNL     1       9.950  11.218  42.666  0.00  0.00    +0.000 OA
ATOM     26  H   UNL     1      10.608  10.597  43.014  0.00  0.00    +0.000 HD
ENDBRANCH  15  25
TORSDOF 4
ENDMDL
MODEL 15
REMARK VINA RESULT:    -6.382      1.138      5.130
REMARK INTER + INTRA:          -7.128
REMARK INTER:                  -7.128
REMARK INTRA:                   0.000
REMARK UNBOUND:                 0.000
REMARK  Name = opt09.pdb
REMARK  4 active torsions:
REMARK  status: ('A' for Active; 'I' for Inactive)
REMARK    1  A    between atoms: C_8  and  O_12
REMARK    2  A    between atoms: C_11  and  O_17
REMARK    3  A    between atoms: C_13  and  O_18
REMARK    4  A    between atoms: C_16  and  O_21
REMARK                            x       y       z     vdW  Elec       q    Type
REMARK                         _______ _______ _______ _____ _____    ______ ____
ROOT
ATOM      1  O   UNL     1      17.496  14.553  45.540  0.00  0.00    +0.000 OA
ATOM      2  C   UNL     1      16.410  14.973  45.202  0.00  0.00    +0.000 A 
ATOM      3  O   UNL     1      16.149  16.307  45.196  0.00  0.00    +0.000 OA
ATOM      4  C   UNL     1      15.289  14.115  44.773  0.00  0.00    +0.000 A 
ATOM      5  C   UNL     1      14.946  16.877  44.819  0.00  0.00    +0.000 A 
ATOM      6  C   UNL     1      14.022  14.680  44.389  0.00  0.00    +0.000 A 
ATOM      7  C   UNL     1      15.379  12.670  44.713  0.00  0.00    +0.000 A 
ATOM      8  C   UNL     1      14.779  18.301  44.865  0.00  0.00    +0.000 A 
ATOM      9  C   UNL     1      13.852  16.049  44.413  0.00  0.00    +0.000 A 
ATOM     10  C   UNL     1      12.929  13.854  43.982  0.00  0.00    +0.000 A 
ATOM     11  C   UNL     1      14.310  11.865  44.306  0.00  0.00    +0.000 A 
ATOM     12  C   UNL     1      13.554  18.854  44.497  0.00  0.00    +0.000 A 
ATOM     13  C   UNL     1      12.583  16.611  44.029  0.00  0.00    +0.000 A 
ATOM     14  O   UNL     1      11.725  14.422  43.604  0.00  0.00    +0.000 OA
ATOM     15  C   UNL     1      13.092  12.431  43.939  0.00  0.00    +0.000 A 
ATOM     16  C   UNL     1      12.486  18.053  44.089  0.00  0.00    +0.000 A 
ATOM     17  C   UNL     1      11.463  15.754  43.601  0.00  0.00    +0.000 A 
ATOM     18  O   UNL     1      10.376  16.174  43.263  0.00  0.00    +0.000 OA
ENDROOT
BRANCH   8  19
ATOM     19  O   UNL     1      15.806  19.107  45.259  0.00  0.00    +0.000 OA
ATOM     20  H   UNL     1      15.531  19.562  46.078  0.00  0.00    +0.000 HD
ENDBRANCH   8  19
BRANCH  11  21
ATOM     21  O   UNL     1      14.450  10.510  44.266  0.00  0.00    +0.000 OA
ATOM     22  H   UNL     1      14.619  10.219  43.363  0.00  0.00    +0.000 HD
ENDBRANCH  11  21
BRANCH  12  23
ATOM     23  O   UNL     1      13.411  20.205  44.540  0.00  0.00    +0.000 OA
ATOM     24  H   UNL     1      12.529  20.395  44.159  0.00  0.00    +0.000 HD
ENDBRANCH  12  23
BRANCH  15  25
ATOM     25  O   UNL     1      12.043  11.664  43.540  0.00  0.00    +0.000 OA
ATOM     26  H   UNL     1      11.756  12.009  42.680  0.00  0.00    +0.000 HD
ENDBRANCH  15  25
TORSDOF 4
ENDMDL
MODEL 16
REMARK VINA RESULT:    -6.295      2.224      5.617
REMARK INTER + INTRA:          -7.031
REMARK INTER:                  -7.031
REMARK INTRA:                   0.000
REMARK UNBOUND:                 0.000
REMARK  Name = opt09.pdb
REMARK  4 active torsions:
REMARK  status: ('A' for Active; 'I' for Inactive)
REMARK    1  A    between atoms: C_8  and  O_12
REMARK    2  A    between atoms: C_11  and  O_17
REMARK    3  A    between atoms: C_13  and  O_18
REMARK    4  A    between atoms: C_16  and  O_21
REMARK                            x       y       z     vdW  Elec       q    Type
REMARK                         _______ _______ _______ _____ _____    ______ ____
ROOT
ATOM      1  O   UNL     1      13.673  17.039  44.695  0.00  0.00    +0.000 OA
ATOM      2  C   UNL     1      12.754  16.317  44.371  0.00  0.00    +0.000 A 
ATOM      3  O   UNL     1      11.529  16.832  44.085  0.00  0.00    +0.000 OA
ATOM      4  C   UNL     1      12.858  14.850  44.253  0.00  0.00    +0.000 A 
ATOM      5  C   UNL     1      10.428  16.089  43.700  0.00  0.00    +0.000 A 
ATOM      6  C   UNL     1      11.726  14.050  43.867  0.00  0.00    +0.000 A 
ATOM      7  C   UNL     1      14.084  14.122  44.516  0.00  0.00    +0.000 A 
ATOM      8  C   UNL     1       9.177  16.739  43.436  0.00  0.00    +0.000 A 
ATOM      9  C   UNL     1      10.520  14.664  43.595  0.00  0.00    +0.000 A 
ATOM     10  C   UNL     1      11.817  12.627  43.761  0.00  0.00    +0.000 A 
ATOM     11  C   UNL     1      14.172  12.731  44.402  0.00  0.00    +0.000 A 
ATOM     12  C   UNL     1       8.075  15.970  43.064  0.00  0.00    +0.000 A 
ATOM     13  C   UNL     1       9.389  13.862  43.210  0.00  0.00    +0.000 A 
ATOM     14  O   UNL     1      10.717  11.883  43.376  0.00  0.00    +0.000 OA
ATOM     15  C   UNL     1      13.064  11.975  44.028  0.00  0.00    +0.000 A 
ATOM     16  C   UNL     1       8.162  14.581  42.949  0.00  0.00    +0.000 A 
ATOM     17  C   UNL     1       9.493  12.396  43.092  0.00  0.00    +0.000 A 
ATOM     18  O   UNL     1       8.574  11.672  42.769  0.00  0.00    +0.000 OA
ENDROOT
BRANCH   8  19
ATOM     19  O   UNL     1       9.065  18.094  43.540  0.00  0.00    +0.000 OA
ATOM     20  H   UNL     1       8.613  18.292  44.382  0.00  0.00    +0.000 HD
ENDBRANCH   8  19
BRANCH  11  21
ATOM     21  O   UNL     1      15.351  12.097  44.659  0.00  0.00    +0.000 OA
ATOM     22  H   UNL     1      15.417  11.291  44.135  0.00  0.00    +0.000 HD
ENDBRANCH  11  21
BRANCH  12  23
ATOM     23  O   UNL     1       6.898  16.600  42.811  0.00  0.00    +0.000 OA
ATOM     24  H   UNL     1       6.333  16.441  43.596  0.00  0.00    +0.000 HD
ENDBRANCH  12  23
BRANCH  15  25
ATOM     25  O   UNL     1      13.133  10.622  43.912  0.00  0.00    +0.000 OA
ATOM     26  H   UNL     1      12.643  10.386  43.109  0.00  0.00    +0.000 HD
ENDBRANCH  15  25
TORSDOF 4
ENDMDL
MODEL 17
REMARK VINA RESULT:    -6.171      1.223      4.787
REMARK INTER + INTRA:          -6.893
REMARK INTER:                  -6.893
REMARK INTRA:                   0.000
REMARK UNBOUND:                 0.000
REMARK  Name = opt09.pdb
REMARK  4 active torsions:
REMARK  status: ('A' for Active; 'I' for Inactive)
REMARK    1  A    between atoms: C_8  and  O_12
REMARK    2  A    between atoms: C_11  and  O_17
REMARK    3  A    between atoms: C_13  and  O_18
REMARK    4  A    between atoms: C_16  and  O_21
REMARK                            x       y       z     vdW  Elec       q    Type
REMARK                         _______ _______ _______ _____ _____    ______ ____
ROOT
ATOM      1  O   UNL     1      13.410  11.574  44.579  0.00  0.00    +0.000 OA
ATOM      2  C   UNL     1      13.609  12.769  44.637  0.00  0.00    +0.000 A 
ATOM      3  O   UNL     1      14.846  13.257  44.924  0.00  0.00    +0.000 OA
ATOM      4  C   UNL     1      12.571  13.792  44.412  0.00  0.00    +0.000 A 
ATOM      5  C   UNL     1      15.168  14.600  45.003  0.00  0.00    +0.000 A 
ATOM      6  C   UNL     1      12.875  15.196  44.501  0.00  0.00    +0.000 A 
ATOM      7  C   UNL     1      11.196  13.464  44.094  0.00  0.00    +0.000 A 
ATOM      8  C   UNL     1      16.507  15.000  45.326  0.00  0.00    +0.000 A 
ATOM      9  C   UNL     1      14.162  15.597  44.796  0.00  0.00    +0.000 A 
ATOM     10  C   UNL     1      11.871  16.193  44.293  0.00  0.00    +0.000 A 
ATOM     11  C   UNL     1      10.218  14.441  43.882  0.00  0.00    +0.000 A 
ATOM     12  C   UNL     1      16.808  16.358  45.417  0.00  0.00    +0.000 A 
ATOM     13  C   UNL     1      14.463  17.001  44.885  0.00  0.00    +0.000 A 
ATOM     14  O   UNL     1      12.192  17.536  44.372  0.00  0.00    +0.000 OA
ATOM     15  C   UNL     1      10.532  15.795  43.974  0.00  0.00    +0.000 A 
ATOM     16  C   UNL     1      15.833  17.336  45.205  0.00  0.00    +0.000 A 
ATOM     17  C   UNL     1      13.426  18.024  44.660  0.00  0.00    +0.000 A 
ATOM     18  O   UNL     1      13.624  19.219  44.719  0.00  0.00    +0.000 OA
ENDROOT
BRANCH   8  19
ATOM     19  O   UNL     1      17.478  14.066  45.537  0.00  0.00    +0.000 OA
ATOM     20  H   UNL     1      18.119  14.132  44.805  0.00  0.00    +0.000 HD
ENDBRANCH   8  19
BRANCH  11  21
ATOM     21  O   UNL     1       8.939  14.077  43.584  0.00  0.00    +0.000 OA
ATOM     22  H   UNL     1       8.805  13.142  43.773  0.00  0.00    +0.000 HD
ENDBRANCH  11  21
BRANCH  12  23
ATOM     23  O   UNL     1      18.081  16.724  45.718  0.00  0.00    +0.000 OA
ATOM     24  H   UNL     1      18.006  17.470  46.348  0.00  0.00    +0.000 HD
ENDBRANCH  12  23
BRANCH  15  25
ATOM     25  O   UNL     1       9.595  16.758  43.771  0.00  0.00    +0.000 OA
ATOM     26  H   UNL     1      10.074  17.580  43.585  0.00  0.00    +0.000 HD
ENDBRANCH  15  25
TORSDOF 4
ENDMDL
MODEL 18
REMARK VINA RESULT:    -6.137      1.218      4.162
REMARK INTER + INTRA:          -6.854
REMARK INTER:                  -6.854
REMARK INTRA:                   0.000
REMARK UNBOUND:                 0.000
REMARK  Name = opt09.pdb
REMARK  4 active torsions:
REMARK  status: ('A' for Active; 'I' for Inactive)
REMARK    1  A    between atoms: C_8  and  O_12
REMARK    2  A    between atoms: C_11  and  O_17
REMARK    3  A    between atoms: C_13  and  O_18
REMARK    4  A    between atoms: C_16  and  O_21
REMARK                            x       y       z     vdW  Elec       q    Type
REMARK                         _______ _______ _______ _____ _____    ______ ____
ROOT
ATOM      1  O   UNL     1      13.078  18.733  44.483  0.00  0.00    +0.000 OA
ATOM      2  C   UNL     1      12.985  17.525  44.413  0.00  0.00    +0.000 A 
ATOM      3  O   UNL     1      11.820  16.936  44.035  0.00  0.00    +0.000 OA
ATOM      4  C   UNL     1      14.087  16.593  44.719  0.00  0.00    +0.000 A 
ATOM      5  C   UNL     1      11.624  15.572  43.918  0.00  0.00    +0.000 A 
ATOM      6  C   UNL     1      13.907  15.168  44.619  0.00  0.00    +0.000 A 
ATOM      7  C   UNL     1      15.402  17.034  45.136  0.00  0.00    +0.000 A 
ATOM      8  C   UNL     1      10.344  15.061  43.522  0.00  0.00    +0.000 A 
ATOM      9  C   UNL     1      12.685  14.662  44.224  0.00  0.00    +0.000 A 
ATOM     10  C   UNL     1      14.967  14.258  44.923  0.00  0.00    +0.000 A 
ATOM     11  C   UNL     1      16.439  16.142  45.424  0.00  0.00    +0.000 A 
ATOM     12  C   UNL     1      10.162  13.681  43.427  0.00  0.00    +0.000 A 
ATOM     13  C   UNL     1      12.508  13.237  44.127  0.00  0.00    +0.000 A 
ATOM     14  O   UNL     1      14.772  12.894  44.808  0.00  0.00    +0.000 OA
ATOM     15  C   UNL     1      16.245  14.766  45.323  0.00  0.00    +0.000 A 
ATOM     16  C   UNL     1      11.196  12.789  43.713  0.00  0.00    +0.000 A 
ATOM     17  C   UNL     1      13.608  12.304  44.432  0.00  0.00    +0.000 A 
ATOM     18  O   UNL     1      13.516  11.096  44.363  0.00  0.00    +0.000 OA
ENDROOT
BRANCH   8  19
ATOM     19  O   UNL     1       9.316  15.910  43.237  0.00  0.00    +0.000 OA
ATOM     20  H   UNL     1       8.486  15.398  43.273  0.00  0.00    +0.000 HD
ENDBRANCH   8  19
BRANCH  11  21
ATOM     21  O   UNL     1      17.659  16.612  45.811  0.00  0.00    +0.000 OA
ATOM     22  H   UNL     1      17.555  17.378  46.386  0.00  0.00    +0.000 HD
ENDBRANCH  11  21
BRANCH  12  23
ATOM     23  O   UNL     1       8.946  13.211  43.045  0.00  0.00    +0.000 OA
ATOM     24  H   UNL     1       8.719  13.686  42.220  0.00  0.00    +0.000 HD
ENDBRANCH  12  23
BRANCH  15  25
ATOM     25  O   UNL     1      17.243  13.885  45.599  0.00  0.00    +0.000 OA
ATOM     26  H   UNL     1      18.052  14.407  45.714  0.00  0.00    +0.000 HD
ENDBRANCH  15  25
TORSDOF 4
ENDMDL
MODEL 19
REMARK VINA RESULT:    -6.085      1.822      5.982
REMARK INTER + INTRA:          -6.796
REMARK INTER:                  -6.796
REMARK INTRA:                   0.000
REMARK UNBOUND:                 0.000
REMARK  Name = opt09.pdb
REMARK  4 active torsions:
REMARK  status: ('A' for Active; 'I' for Inactive)
REMARK    1  A    between atoms: C_8  and  O_12
REMARK    2  A    between atoms: C_11  and  O_17
REMARK    3  A    between atoms: C_13  and  O_18
REMARK    4  A    between atoms: C_16  and  O_21
REMARK                            x       y       z     vdW  Elec       q    Type
REMARK                         _______ _______ _______ _____ _____    ______ ____
ROOT
ATOM      1  O   UNL     1      10.132  17.819  43.697  0.00  0.00    +0.000 OA
ATOM      2  C   UNL     1      10.887  16.883  43.857  0.00  0.00    +0.000 A 
ATOM      3  O   UNL     1      12.162  17.081  44.284  0.00  0.00    +0.000 OA
ATOM      4  C   UNL     1      10.520  15.475  43.613  0.00  0.00    +0.000 A 
ATOM      5  C   UNL     1      13.089  16.077  44.501  0.00  0.00    +0.000 A 
ATOM      6  C   UNL     1      11.468  14.411  43.818  0.00  0.00    +0.000 A 
ATOM      7  C   UNL     1       9.206  15.069  43.157  0.00  0.00    +0.000 A 
ATOM      8  C   UNL     1      14.414  16.404  44.942  0.00  0.00    +0.000 A 
ATOM      9  C   UNL     1      12.742  14.710  44.257  0.00  0.00    +0.000 A 
ATOM     10  C   UNL     1      11.122  13.046  43.575  0.00  0.00    +0.000 A 
ATOM     11  C   UNL     1       8.868  13.732  42.928  0.00  0.00    +0.000 A 
ATOM     12  C   UNL     1      15.338  15.379  45.139  0.00  0.00    +0.000 A 
ATOM     13  C   UNL     1      13.688  13.644  44.460  0.00  0.00    +0.000 A 
ATOM     14  O   UNL     1      12.047  12.041  43.792  0.00  0.00    +0.000 OA
ATOM     15  C   UNL     1       9.800  12.717  43.132  0.00  0.00    +0.000 A 
ATOM     16  C   UNL     1      15.003  14.043  44.913  0.00  0.00    +0.000 A 
ATOM     17  C   UNL     1      13.322  12.237  44.217  0.00  0.00    +0.000 A 
ATOM     18  O   UNL     1      14.077  11.300  44.375  0.00  0.00    +0.000 OA
ENDROOT
BRANCH   8  19
ATOM     19  O   UNL     1      14.768  17.701  45.170  0.00  0.00    +0.000 OA
ATOM     20  H   UNL     1      14.394  17.964  46.033  0.00  0.00    +0.000 HD
ENDBRANCH   8  19
BRANCH  11  21
ATOM     21  O   UNL     1       7.616  13.405  42.501  0.00  0.00    +0.000 OA
ATOM     22  H   UNL     1       7.015  13.336  43.251  0.00  0.00    +0.000 HD
ENDBRANCH  11  21
BRANCH  12  23
ATOM     23  O   UNL     1      16.588  15.702  45.562  0.00  0.00    +0.000 OA
ATOM     24  H   UNL     1      17.161  14.949  45.311  0.00  0.00    +0.000 HD
ENDBRANCH  12  23
BRANCH  15  25
ATOM     25  O   UNL     1       9.489  11.411  42.916  0.00  0.00    +0.000 OA
ATOM     26  H   UNL     1       8.637  11.401  42.451  0.00  0.00    +0.000 HD
ENDBRANCH  15  25
TORSDOF 4
ENDMDL
