MODEL 1
REMARK VINA RESULT:    -6.502      0.000      0.000
REMARK INTER + INTRA:          -9.655
REMARK INTER:                  -9.353
REMARK INTRA:                  -0.302
REMARK UNBOUND:                -0.302
REMARK  Name = opt06.pdb
REMARK  10 active torsions:
REMARK  status: ('A' for Active; 'I' for Inactive)
REMARK    1  A    between atoms: C_2  and  O_3
REMARK    2  A    between atoms: C_2  and  C_4
REMARK    3  A    between atoms: O_3  and  C_5
REMARK    4  A    between atoms: C_6  and  C_9
REMARK    5  A    between atoms: C_7  and  O_10
REMARK    6  A    between atoms: C_11  and  O_15
REMARK    7  A    between atoms: C_12  and  O_17
REMARK    8  A    between atoms: C_12  and  C_18
REMARK    9  A    between atoms: C_19  and  O_23
REMARK   10  A    between atoms: C_24  and  O_25
REMARK                            x       y       z     vdW  Elec       q    Type
REMARK                         _______ _______ _______ _____ _____    ______ ____
ROOT
ATOM      1  O   UNL     1      10.232  12.221  43.597  0.00  0.00    +0.000 OA
ENDROOT
BRANCH   1   2
ATOM      2  C   UNL     1       9.059  13.066  43.338  0.00  0.00    +0.000 C 
ATOM      3  C   UNL     1       8.042  12.317  42.440  0.00  0.00    +0.000 C 
ATOM      4  C   UNL     1       8.397  13.642  44.617  0.00  0.00    +0.000 C 
ATOM      5  C   UNL     1       6.815  13.202  42.118  0.00  0.00    +0.000 C 
ATOM      6  C   UNL     1       7.228  14.592  44.241  0.00  0.00    +0.000 C 
ATOM      7  C   UNL     1       6.185  13.801  43.400  0.00  0.00    +0.000 C 
BRANCH   6   8
ATOM      8  C   UNL     1       7.737  15.839  43.514  0.00  0.00    +0.000 C 
ATOM      9  O   UNL     1       6.968  16.418  42.772  0.00  0.00    +0.000 OA
ATOM     10  O   UNL     1       8.867  16.228  43.736  0.00  0.00    +0.000 OA
ENDBRANCH   6   8
BRANCH   6  11
ATOM     11  O   UNL     1       6.590  15.011  45.456  0.00  0.00    +0.000 OA
ATOM     12  H   UNL     1       6.932  15.892  45.680  0.00  0.00    +0.000 HD
ENDBRANCH   6  11
BRANCH   3  13
ATOM     13  O   UNL     1       7.602  11.089  43.046  0.00  0.00    +0.000 OA
ATOM     14  H   UNL     1       7.810  10.366  42.422  0.00  0.00    +0.000 HD
ENDBRANCH   3  13
BRANCH   5  15
ATOM     15  O   UNL     1       5.857  12.368  41.462  0.00  0.00    +0.000 OA
ATOM     16  H   UNL     1       5.117  12.320  42.099  0.00  0.00    +0.000 HD
ENDBRANCH   5  15
ENDBRANCH   1   2
BRANCH   1  18
ATOM     17  O   UNL     1      11.150  11.559  41.597  0.00  0.00    +0.000 OA
ATOM     18  C   UNL     1      11.245  12.011  42.722  0.00  0.00    +0.000 C 
BRANCH  18  19
ATOM     19  C   UNL     1      12.547  12.441  43.272  0.00  0.00    +0.000 C 
ATOM     20  C   UNL     1      13.658  12.811  42.613  0.00  0.00    +0.000 C 
BRANCH  20  21
ATOM     21  C   UNL     1      14.934  13.263  43.208  0.00  0.00    +0.000 A 
ATOM     22  C   UNL     1      15.131  13.222  44.593  0.00  0.00    +0.000 A 
ATOM     23  C   UNL     1      15.957  13.724  42.376  0.00  0.00    +0.000 A 
ATOM     24  C   UNL     1      16.351  13.636  45.136  0.00  0.00    +0.000 A 
ATOM     25  C   UNL     1      17.168  14.147  42.916  0.00  0.00    +0.000 A 
ATOM     26  C   UNL     1      17.362  14.096  44.292  0.00  0.00    +0.000 A 
BRANCH  26  27
ATOM     27  O   UNL     1      18.546  14.478  44.835  0.00  0.00    +0.000 OA
ATOM     28  H   UNL     1      18.457  14.285  45.789  0.00  0.00    +0.000 HD
ENDBRANCH  26  27
BRANCH  24  29
ATOM     29  O   UNL     1      16.585  13.600  46.487  0.00  0.00    +0.000 OA
ATOM     30  H   UNL     1      15.936  13.035  46.941  0.00  0.00    +0.000 HD
ENDBRANCH  24  29
ENDBRANCH  20  21
ENDBRANCH  18  19
ENDBRANCH   1  18
TORSDOF 10
ENDMDL
MODEL 2
REMARK VINA RESULT:    -6.376      1.004      2.709
REMARK INTER + INTRA:          -9.473
REMARK INTER:                  -9.156
REMARK INTRA:                  -0.317
REMARK UNBOUND:                -0.302
REMARK  Name = opt06.pdb
REMARK  10 active torsions:
REMARK  status: ('A' for Active; 'I' for Inactive)
REMARK    1  A    between atoms: C_2  and  O_3
REMARK    2  A    between atoms: C_2  and  C_4
REMARK    3  A    between atoms: O_3  and  C_5
REMARK    4  A    between atoms: C_6  and  C_9
REMARK    5  A    between atoms: C_7  and  O_10
REMARK    6  A    between atoms: C_11  and  O_15
REMARK    7  A    between atoms: C_12  and  O_17
REMARK    8  A    between atoms: C_12  and  C_18
REMARK    9  A    between atoms: C_19  and  O_23
REMARK   10  A    between atoms: C_24  and  O_25
REMARK                            x       y       z     vdW  Elec       q    Type
REMARK                         _______ _______ _______ _____ _____    ______ ____
ROOT
ATOM      1  O   UNL     1      10.371  12.680  42.239  0.00  0.00    +0.000 OA
ENDROOT
BRANCH   1   2
ATOM      2  C   UNL     1       8.995  12.914  42.695  0.00  0.00    +0.000 C 
ATOM      3  C   UNL     1       8.899  14.262  43.453  0.00  0.00    +0.000 C 
ATOM      4  C   UNL     1       7.927  12.796  41.575  0.00  0.00    +0.000 C 
ATOM      5  C   UNL     1       7.467  14.512  43.981  0.00  0.00    +0.000 C 
ATOM      6  C   UNL     1       6.502  12.967  42.166  0.00  0.00    +0.000 C 
ATOM      7  C   UNL     1       6.407  14.355  42.862  0.00  0.00    +0.000 C 
BRANCH   6   8
ATOM      8  C   UNL     1       6.150  11.817  43.112  0.00  0.00    +0.000 C 
ATOM      9  O   UNL     1       5.551  12.084  44.135  0.00  0.00    +0.000 OA
ATOM     10  O   UNL     1       6.442  10.682  42.789  0.00  0.00    +0.000 OA
ENDBRANCH   6   8
BRANCH   6  11
ATOM     11  O   UNL     1       5.567  12.953  41.077  0.00  0.00    +0.000 OA
ATOM     12  H   UNL     1       4.691  13.167  41.438  0.00  0.00    +0.000 HD
ENDBRANCH   6  11
BRANCH   3  13
ATOM     13  O   UNL     1       9.307  15.367  42.628  0.00  0.00    +0.000 OA
ATOM     14  H   UNL     1       8.873  16.169  42.980  0.00  0.00    +0.000 HD
ENDBRANCH   3  13
BRANCH   5  15
ATOM     15  O   UNL     1       7.433  15.850  44.484  0.00  0.00    +0.000 OA
ATOM     16  H   UNL     1       7.935  16.360  43.819  0.00  0.00    +0.000 HD
ENDBRANCH   5  15
ENDBRANCH   1   2
BRANCH   1  18
ATOM     17  O   UNL     1      10.981  10.506  42.666  0.00  0.00    +0.000 OA
ATOM     18  C   UNL     1      11.186  11.704  42.705  0.00  0.00    +0.000 C 
BRANCH  18  19
ATOM     19  C   UNL     1      12.440  12.252  43.264  0.00  0.00    +0.000 C 
ATOM     20  C   UNL     1      13.602  12.503  42.637  0.00  0.00    +0.000 C 
BRANCH  20  21
ATOM     21  C   UNL     1      14.825  13.080  43.234  0.00  0.00    +0.000 A 
ATOM     22  C   UNL     1      15.042  13.025  44.615  0.00  0.00    +0.000 A 
ATOM     23  C   UNL     1      15.778  13.679  42.407  0.00  0.00    +0.000 A 
ATOM     24  C   UNL     1      16.213  13.560  45.160  0.00  0.00    +0.000 A 
ATOM     25  C   UNL     1      16.940  14.222  42.948  0.00  0.00    +0.000 A 
ATOM     26  C   UNL     1      17.155  14.156  44.320  0.00  0.00    +0.000 A 
BRANCH  26  27
ATOM     27  O   UNL     1      18.294  14.656  44.864  0.00  0.00    +0.000 OA
ATOM     28  H   UNL     1      18.594  13.968  45.491  0.00  0.00    +0.000 HD
ENDBRANCH  26  27
BRANCH  24  29
ATOM     29  O   UNL     1      16.465  13.514  46.506  0.00  0.00    +0.000 OA
ATOM     30  H   UNL     1      16.545  12.596  46.818  0.00  0.00    +0.000 HD
ENDBRANCH  24  29
ENDBRANCH  20  21
ENDBRANCH  18  19
ENDBRANCH   1  18
TORSDOF 10
ENDMDL
MODEL 3
REMARK VINA RESULT:    -6.316      2.061      8.451
REMARK INTER + INTRA:          -9.387
REMARK INTER:                  -9.142
REMARK INTRA:                  -0.245
REMARK UNBOUND:                -0.302
REMARK  Name = opt06.pdb
REMARK  10 active torsions:
REMARK  status: ('A' for Active; 'I' for Inactive)
REMARK    1  A    between atoms: C_2  and  O_3
REMARK    2  A    between atoms: C_2  and  C_4
REMARK    3  A    between atoms: O_3  and  C_5
REMARK    4  A    between atoms: C_6  and  C_9
REMARK    5  A    between atoms: C_7  and  O_10
REMARK    6  A    between atoms: C_11  and  O_15
REMARK    7  A    between atoms: C_12  and  O_17
REMARK    8  A    between atoms: C_12  and  C_18
REMARK    9  A    between atoms: C_19  and  O_23
REMARK   10  A    between atoms: C_24  and  O_25
REMARK                            x       y       z     vdW  Elec       q    Type
REMARK                         _______ _______ _______ _____ _____    ______ ____
ROOT
ATOM      1  O   UNL     1      13.495  12.982  42.696  0.00  0.00    +0.000 OA
ENDROOT
BRANCH   1   2
ATOM      2  C   UNL     1      14.636  13.763  43.192  0.00  0.00    +0.000 C 
ATOM      3  C   UNL     1      15.017  13.312  44.626  0.00  0.00    +0.000 C 
ATOM      4  C   UNL     1      15.860  13.774  42.239  0.00  0.00    +0.000 C 
ATOM      5  C   UNL     1      16.190  14.148  45.187  0.00  0.00    +0.000 C 
ATOM      6  C   UNL     1      16.976  14.695  42.801  0.00  0.00    +0.000 C 
ATOM      7  C   UNL     1      17.392  14.182  44.210  0.00  0.00    +0.000 C 
BRANCH   6   8
ATOM      8  C   UNL     1      16.531  16.158  42.821  0.00  0.00    +0.000 C 
ATOM      9  O   UNL     1      15.813  16.548  41.921  0.00  0.00    +0.000 OA
ATOM     10  O   UNL     1      16.873  16.863  43.751  0.00  0.00    +0.000 OA
ENDBRANCH   6   8
BRANCH   6  11
ATOM     11  O   UNL     1      18.117  14.585  41.937  0.00  0.00    +0.000 OA
ATOM     12  H   UNL     1      18.526  15.464  41.877  0.00  0.00    +0.000 HD
ENDBRANCH   6  11
BRANCH   3  13
ATOM     13  O   UNL     1      15.357  11.915  44.671  0.00  0.00    +0.000 OA
ATOM     14  H   UNL     1      15.397  11.656  45.612  0.00  0.00    +0.000 HD
ENDBRANCH   3  13
BRANCH   5  15
ATOM     15  O   UNL     1      16.593  13.535  46.414  0.00  0.00    +0.000 OA
ATOM     16  H   UNL     1      15.748  13.342  46.865  0.00  0.00    +0.000 HD
ENDBRANCH   5  15
ENDBRANCH   1   2
BRANCH   1  18
ATOM     17  O   UNL     1      12.577  11.290  43.952  0.00  0.00    +0.000 OA
ATOM     18  C   UNL     1      12.549  12.410  43.479  0.00  0.00    +0.000 C 
BRANCH  18  19
ATOM     19  C   UNL     1      11.430  13.335  43.758  0.00  0.00    +0.000 C 
ATOM     20  C   UNL     1      10.110  13.124  43.624  0.00  0.00    +0.000 C 
BRANCH  20  21
ATOM     21  C   UNL     1       9.023  14.074  43.943  0.00  0.00    +0.000 A 
ATOM     22  C   UNL     1       7.915  13.668  44.694  0.00  0.00    +0.000 A 
ATOM     23  C   UNL     1       9.111  15.396  43.498  0.00  0.00    +0.000 A 
ATOM     24  C   UNL     1       6.906  14.586  45.002  0.00  0.00    +0.000 A 
ATOM     25  C   UNL     1       8.103  16.308  43.794  0.00  0.00    +0.000 A 
ATOM     26  C   UNL     1       7.008  15.901  44.549  0.00  0.00    +0.000 A 
BRANCH  26  27
ATOM     27  O   UNL     1       6.028  16.783  44.870  0.00  0.00    +0.000 OA
ATOM     28  H   UNL     1       5.355  16.248  45.336  0.00  0.00    +0.000 HD
ENDBRANCH  26  27
BRANCH  24  29
ATOM     29  O   UNL     1       5.811  14.227  45.745  0.00  0.00    +0.000 OA
ATOM     30  H   UNL     1       5.045  14.788  45.536  0.00  0.00    +0.000 HD
ENDBRANCH  24  29
ENDBRANCH  20  21
ENDBRANCH  18  19
ENDBRANCH   1  18
TORSDOF 10
ENDMDL
MODEL 4
REMARK VINA RESULT:    -6.253      2.628      8.318
REMARK INTER + INTRA:          -9.296
REMARK INTER:                  -8.636
REMARK INTRA:                  -0.661
REMARK UNBOUND:                -0.302
REMARK  Name = opt06.pdb
REMARK  10 active torsions:
REMARK  status: ('A' for Active; 'I' for Inactive)
REMARK    1  A    between atoms: C_2  and  O_3
REMARK    2  A    between atoms: C_2  and  C_4
REMARK    3  A    between atoms: O_3  and  C_5
REMARK    4  A    between atoms: C_6  and  C_9
REMARK    5  A    between atoms: C_7  and  O_10
REMARK    6  A    between atoms: C_11  and  O_15
REMARK    7  A    between atoms: C_12  and  O_17
REMARK    8  A    between atoms: C_12  and  C_18
REMARK    9  A    between atoms: C_19  and  O_23
REMARK   10  A    between atoms: C_24  and  O_25
REMARK                            x       y       z     vdW  Elec       q    Type
REMARK                         _______ _______ _______ _____ _____    ______ ____
ROOT
ATOM      1  O   UNL     1      14.420  17.310  44.161  0.00  0.00    +0.000 OA
ENDROOT
BRANCH   1   2
ATOM      2  C   UNL     1      15.101  16.018  44.000  0.00  0.00    +0.000 C 
ATOM      3  C   UNL     1      16.232  16.132  42.947  0.00  0.00    +0.000 C 
ATOM      4  C   UNL     1      15.600  15.395  45.330  0.00  0.00    +0.000 C 
ATOM      5  C   UNL     1      16.938  14.773  42.728  0.00  0.00    +0.000 C 
ATOM      6  C   UNL     1      16.222  13.996  45.072  0.00  0.00    +0.000 C 
ATOM      7  C   UNL     1      17.400  14.144  44.067  0.00  0.00    +0.000 C 
BRANCH   6   8
ATOM      8  C   UNL     1      15.166  12.999  44.589  0.00  0.00    +0.000 C 
ATOM      9  O   UNL     1      14.102  12.968  45.177  0.00  0.00    +0.000 OA
ATOM     10  O   UNL     1      15.409  12.311  43.617  0.00  0.00    +0.000 OA
ENDBRANCH   6   8
BRANCH   6  11
ATOM     11  O   UNL     1      16.758  13.514  46.313  0.00  0.00    +0.000 OA
ATOM     12  H   UNL     1      16.165  13.809  47.024  0.00  0.00    +0.000 HD
ENDBRANCH   6  11
BRANCH   3  13
ATOM     13  O   UNL     1      17.205  17.125  43.317  0.00  0.00    +0.000 OA
ATOM     14  H   UNL     1      17.996  16.977  42.762  0.00  0.00    +0.000 HD
ENDBRANCH   3  13
BRANCH   5  15
ATOM     15  O   UNL     1      18.078  15.021  41.902  0.00  0.00    +0.000 OA
ATOM     16  H   UNL     1      18.311  14.137  41.557  0.00  0.00    +0.000 HD
ENDBRANCH   5  15
ENDBRANCH   1   2
BRANCH   1  18
ATOM     17  O   UNL     1      12.807  18.308  45.459  0.00  0.00    +0.000 OA
ATOM     18  C   UNL     1      13.169  17.469  44.656  0.00  0.00    +0.000 C 
BRANCH  18  19
ATOM     19  C   UNL     1      12.216  16.503  44.070  0.00  0.00    +0.000 C 
ATOM     20  C   UNL     1      11.584  15.478  44.666  0.00  0.00    +0.000 C 
BRANCH  20  21
ATOM     21  C   UNL     1      10.614  14.552  44.044  0.00  0.00    +0.000 A 
ATOM     22  C   UNL     1      11.001  13.265  43.655  0.00  0.00    +0.000 A 
ATOM     23  C   UNL     1       9.293  14.965  43.853  0.00  0.00    +0.000 A 
ATOM     24  C   UNL     1      10.065  12.397  43.085  0.00  0.00    +0.000 A 
ATOM     25  C   UNL     1       8.363  14.106  43.275  0.00  0.00    +0.000 A 
ATOM     26  C   UNL     1       8.750  12.825  42.899  0.00  0.00    +0.000 A 
BRANCH  26  27
ATOM     27  O   UNL     1       7.850  11.964  42.359  0.00  0.00    +0.000 OA
ATOM     28  H   UNL     1       7.711  12.289  41.448  0.00  0.00    +0.000 HD
ENDBRANCH  26  27
BRANCH  24  29
ATOM     29  O   UNL     1      10.405  11.125  42.701  0.00  0.00    +0.000 OA
ATOM     30  H   UNL     1      11.119  11.136  42.041  0.00  0.00    +0.000 HD
ENDBRANCH  24  29
ENDBRANCH  20  21
ENDBRANCH  18  19
ENDBRANCH   1  18
TORSDOF 10
ENDMDL
MODEL 5
REMARK VINA RESULT:    -6.234      1.190      3.135
REMARK INTER + INTRA:          -9.269
REMARK INTER:                  -9.070
REMARK INTRA:                  -0.199
REMARK UNBOUND:                -0.302
REMARK  Name = opt06.pdb
REMARK  10 active torsions:
REMARK  status: ('A' for Active; 'I' for Inactive)
REMARK    1  A    between atoms: C_2  and  O_3
REMARK    2  A    between atoms: C_2  and  C_4
REMARK    3  A    between atoms: O_3  and  C_5
REMARK    4  A    between atoms: C_6  and  C_9
REMARK    5  A    between atoms: C_7  and  O_10
REMARK    6  A    between atoms: C_11  and  O_15
REMARK    7  A    between atoms: C_12  and  O_17
REMARK    8  A    between atoms: C_12  and  C_18
REMARK    9  A    between atoms: C_19  and  O_23
REMARK   10  A    between atoms: C_24  and  O_25
REMARK                            x       y       z     vdW  Elec       q    Type
REMARK                         _______ _______ _______ _____ _____    ______ ____
ROOT
ATOM      1  O   UNL     1      10.238  13.470  43.533  0.00  0.00    +0.000 OA
ENDROOT
BRANCH   1   2
ATOM      2  C   UNL     1       8.797  13.192  43.469  0.00  0.00    +0.000 C 
ATOM      3  C   UNL     1       7.986  14.439  43.902  0.00  0.00    +0.000 C 
ATOM      4  C   UNL     1       8.321  12.629  42.104  0.00  0.00    +0.000 C 
ATOM      5  C   UNL     1       6.465  14.158  43.882  0.00  0.00    +0.000 C 
ATOM      6  C   UNL     1       6.809  12.279  42.160  0.00  0.00    +0.000 C 
ATOM      7  C   UNL     1       6.008  13.562  42.527  0.00  0.00    +0.000 C 
BRANCH   6   8
ATOM      8  C   UNL     1       6.540  11.127  43.131  0.00  0.00    +0.000 C 
ATOM      9  O   UNL     1       5.467  11.102  43.701  0.00  0.00    +0.000 OA
ATOM     10  O   UNL     1       7.385  10.263  43.264  0.00  0.00    +0.000 OA
ENDBRANCH   6   8
BRANCH   6  11
ATOM     11  O   UNL     1       6.402  11.864  40.849  0.00  0.00    +0.000 OA
ATOM     12  H   UNL     1       7.182  11.502  40.399  0.00  0.00    +0.000 HD
ENDBRANCH   6  11
BRANCH   3  13
ATOM     13  O   UNL     1       8.275  15.576  43.069  0.00  0.00    +0.000 OA
ATOM     14  H   UNL     1       7.420  15.931  42.755  0.00  0.00    +0.000 HD
ENDBRANCH   3  13
BRANCH   5  15
ATOM     15  O   UNL     1       5.804  15.407  44.099  0.00  0.00    +0.000 OA
ATOM     16  H   UNL     1       5.800  15.501  45.072  0.00  0.00    +0.000 HD
ENDBRANCH   5  15
ENDBRANCH   1   2
BRANCH   1  18
ATOM     17  O   UNL     1      11.062  11.339  43.288  0.00  0.00    +0.000 OA
ATOM     18  C   UNL     1      11.212  12.530  43.479  0.00  0.00    +0.000 C 
BRANCH  18  19
ATOM     19  C   UNL     1      12.557  13.120  43.643  0.00  0.00    +0.000 C 
ATOM     20  C   UNL     1      13.610  12.639  44.325  0.00  0.00    +0.000 C 
BRANCH  20  21
ATOM     21  C   UNL     1      14.950  13.253  44.437  0.00  0.00    +0.000 A 
ATOM     22  C   UNL     1      15.751  13.437  43.305  0.00  0.00    +0.000 A 
ATOM     23  C   UNL     1      15.416  13.665  45.689  0.00  0.00    +0.000 A 
ATOM     24  C   UNL     1      17.007  14.036  43.428  0.00  0.00    +0.000 A 
ATOM     25  C   UNL     1      16.672  14.252  45.815  0.00  0.00    +0.000 A 
ATOM     26  C   UNL     1      17.459  14.440  44.685  0.00  0.00    +0.000 A 
BRANCH  26  27
ATOM     27  O   UNL     1      18.675  15.036  44.784  0.00  0.00    +0.000 OA
ATOM     28  H   UNL     1      18.991  15.111  43.862  0.00  0.00    +0.000 HD
ENDBRANCH  26  27
BRANCH  24  29
ATOM     29  O   UNL     1      17.815  14.243  42.339  0.00  0.00    +0.000 OA
ATOM     30  H   UNL     1      18.502  14.903  42.531  0.00  0.00    +0.000 HD
ENDBRANCH  24  29
ENDBRANCH  20  21
ENDBRANCH  18  19
ENDBRANCH   1  18
TORSDOF 10
ENDMDL
MODEL 6
REMARK VINA RESULT:    -6.214      2.044      7.785
REMARK INTER + INTRA:          -9.240
REMARK INTER:                  -8.678
REMARK INTRA:                  -0.562
REMARK UNBOUND:                -0.302
REMARK  Name = opt06.pdb
REMARK  10 active torsions:
REMARK  status: ('A' for Active; 'I' for Inactive)
REMARK    1  A    between atoms: C_2  and  O_3
REMARK    2  A    between atoms: C_2  and  C_4
REMARK    3  A    between atoms: O_3  and  C_5
REMARK    4  A    between atoms: C_6  and  C_9
REMARK    5  A    between atoms: C_7  and  O_10
REMARK    6  A    between atoms: C_11  and  O_15
REMARK    7  A    between atoms: C_12  and  O_17
REMARK    8  A    between atoms: C_12  and  C_18
REMARK    9  A    between atoms: C_19  and  O_23
REMARK   10  A    between atoms: C_24  and  O_25
REMARK                            x       y       z     vdW  Elec       q    Type
REMARK                         _______ _______ _______ _____ _____    ______ ____
ROOT
ATOM      1  O   UNL     1      12.545  11.737  43.540  0.00  0.00    +0.000 OA
ENDROOT
BRANCH   1   2
ATOM      2  C   UNL     1      13.450  12.871  43.771  0.00  0.00    +0.000 C 
ATOM      3  C   UNL     1      14.456  12.537  44.901  0.00  0.00    +0.000 C 
ATOM      4  C   UNL     1      14.158  13.387  42.490  0.00  0.00    +0.000 C 
ATOM      5  C   UNL     1      15.395  13.732  45.191  0.00  0.00    +0.000 C 
ATOM      6  C   UNL     1      15.018  14.638  42.815  0.00  0.00    +0.000 C 
ATOM      7  C   UNL     1      16.067  14.262  43.900  0.00  0.00    +0.000 C 
BRANCH   6   8
ATOM      8  C   UNL     1      14.143  15.820  43.236  0.00  0.00    +0.000 C 
ATOM      9  O   UNL     1      14.567  16.562  44.101  0.00  0.00    +0.000 OA
ATOM     10  O   UNL     1      13.085  16.000  42.665  0.00  0.00    +0.000 OA
ENDBRANCH   6   8
BRANCH   6  11
ATOM     11  O   UNL     1      15.728  15.008  41.624  0.00  0.00    +0.000 OA
ATOM     12  H   UNL     1      15.976  14.190  41.162  0.00  0.00    +0.000 HD
ENDBRANCH   6  11
BRANCH   3  13
ATOM     13  O   UNL     1      15.242  11.374  44.587  0.00  0.00    +0.000 OA
ATOM     14  H   UNL     1      14.872  10.986  43.769  0.00  0.00    +0.000 HD
ENDBRANCH   3  13
BRANCH   5  15
ATOM     15  O   UNL     1      16.400  13.266  46.094  0.00  0.00    +0.000 OA
ATOM     16  H   UNL     1      15.916  13.137  46.933  0.00  0.00    +0.000 HD
ENDBRANCH   5  15
ENDBRANCH   1   2
BRANCH   1  18
ATOM     17  O   UNL     1      11.191  10.958  41.854  0.00  0.00    +0.000 OA
ATOM     18  C   UNL     1      11.463  11.763  42.724  0.00  0.00    +0.000 C 
BRANCH  18  19
ATOM     19  C   UNL     1      10.569  12.899  43.029  0.00  0.00    +0.000 C 
ATOM     20  C   UNL     1       9.446  12.912  43.768  0.00  0.00    +0.000 C 
BRANCH  20  21
ATOM     21  C   UNL     1       8.597  14.084  44.069  0.00  0.00    +0.000 A 
ATOM     22  C   UNL     1       8.963  15.364  43.638  0.00  0.00    +0.000 A 
ATOM     23  C   UNL     1       7.410  13.908  44.784  0.00  0.00    +0.000 A 
ATOM     24  C   UNL     1       8.138  16.457  43.916  0.00  0.00    +0.000 A 
ATOM     25  C   UNL     1       6.592  14.997  45.072  0.00  0.00    +0.000 A 
ATOM     26  C   UNL     1       6.956  16.265  44.633  0.00  0.00    +0.000 A 
BRANCH  26  27
ATOM     27  O   UNL     1       6.158  17.335  44.880  0.00  0.00    +0.000 OA
ATOM     28  H   UNL     1       5.817  17.187  45.784  0.00  0.00    +0.000 HD
ENDBRANCH  26  27
BRANCH  24  29
ATOM     29  O   UNL     1       8.458  17.723  43.500  0.00  0.00    +0.000 OA
ATOM     30  H   UNL     1       9.260  17.720  42.950  0.00  0.00    +0.000 HD
ENDBRANCH  24  29
ENDBRANCH  20  21
ENDBRANCH  18  19
ENDBRANCH   1  18
TORSDOF 10
ENDMDL
MODEL 7
REMARK VINA RESULT:    -6.168      1.163      1.384
REMARK INTER + INTRA:          -9.174
REMARK INTER:                  -8.648
REMARK INTRA:                  -0.526
REMARK UNBOUND:                -0.302
REMARK  Name = opt06.pdb
REMARK  10 active torsions:
REMARK  status: ('A' for Active; 'I' for Inactive)
REMARK    1  A    between atoms: C_2  and  O_3
REMARK    2  A    between atoms: C_2  and  C_4
REMARK    3  A    between atoms: O_3  and  C_5
REMARK    4  A    between atoms: C_6  and  C_9
REMARK    5  A    between atoms: C_7  and  O_10
REMARK    6  A    between atoms: C_11  and  O_15
REMARK    7  A    between atoms: C_12  and  O_17
REMARK    8  A    between atoms: C_12  and  C_18
REMARK    9  A    between atoms: C_19  and  O_23
REMARK   10  A    between atoms: C_24  and  O_25
REMARK                            x       y       z     vdW  Elec       q    Type
REMARK                         _______ _______ _______ _____ _____    ______ ____
ROOT
ATOM      1  O   UNL     1      10.517  12.289  42.527  0.00  0.00    +0.000 OA
ENDROOT
BRANCH   1   2
ATOM      2  C   UNL     1       9.448  13.265  42.276  0.00  0.00    +0.000 C 
ATOM      3  C   UNL     1       8.062  12.574  42.331  0.00  0.00    +0.000 C 
ATOM      4  C   UNL     1       9.512  14.521  43.184  0.00  0.00    +0.000 C 
ATOM      5  C   UNL     1       6.921  13.573  42.028  0.00  0.00    +0.000 C 
ATOM      6  C   UNL     1       8.403  15.533  42.785  0.00  0.00    +0.000 C 
ATOM      7  C   UNL     1       7.017  14.840  42.915  0.00  0.00    +0.000 C 
BRANCH   6   8
ATOM      8  C   UNL     1       8.644  16.097  41.384  0.00  0.00    +0.000 C 
ATOM      9  O   UNL     1       7.673  16.402  40.719  0.00  0.00    +0.000 OA
ATOM     10  O   UNL     1       9.787  16.260  41.004  0.00  0.00    +0.000 OA
ENDBRANCH   6   8
BRANCH   6  11
ATOM     11  O   UNL     1       8.443  16.622  43.719  0.00  0.00    +0.000 OA
ATOM     12  H   UNL     1       7.568  17.043  43.718  0.00  0.00    +0.000 HD
ENDBRANCH   6  11
BRANCH   3  13
ATOM     13  O   UNL     1       7.829  11.950  43.606  0.00  0.00    +0.000 OA
ATOM     14  H   UNL     1       6.894  11.666  43.623  0.00  0.00    +0.000 HD
ENDBRANCH   3  13
BRANCH   5  15
ATOM     15  O   UNL     1       5.690  12.898  42.295  0.00  0.00    +0.000 OA
ATOM     16  H   UNL     1       5.558  12.335  41.507  0.00  0.00    +0.000 HD
ENDBRANCH   5  15
ENDBRANCH   1   2
BRANCH   1  18
ATOM     17  O   UNL     1      11.315  11.476  40.531  0.00  0.00    +0.000 OA
ATOM     18  C   UNL     1      11.482  11.951  41.637  0.00  0.00    +0.000 C 
BRANCH  18  19
ATOM     19  C   UNL     1      12.834  12.264  42.145  0.00  0.00    +0.000 C 
ATOM     20  C   UNL     1      13.253  13.357  42.805  0.00  0.00    +0.000 C 
BRANCH  20  21
ATOM     21  C   UNL     1      14.615  13.614  43.320  0.00  0.00    +0.000 A 
ATOM     22  C   UNL     1      14.900  13.490  44.684  0.00  0.00    +0.000 A 
ATOM     23  C   UNL     1      15.630  13.975  42.431  0.00  0.00    +0.000 A 
ATOM     24  C   UNL     1      16.198  13.720  45.149  0.00  0.00    +0.000 A 
ATOM     25  C   UNL     1      16.920  14.214  42.894  0.00  0.00    +0.000 A 
ATOM     26  C   UNL     1      17.200  14.080  44.249  0.00  0.00    +0.000 A 
BRANCH  26  27
ATOM     27  O   UNL     1      18.459  14.283  44.716  0.00  0.00    +0.000 OA
ATOM     28  H   UNL     1      19.044  13.961  44.002  0.00  0.00    +0.000 HD
ENDBRANCH  26  27
BRANCH  24  29
ATOM     29  O   UNL     1      16.517  13.597  46.477  0.00  0.00    +0.000 OA
ATOM     30  H   UNL     1      16.502  12.665  46.758  0.00  0.00    +0.000 HD
ENDBRANCH  24  29
ENDBRANCH  20  21
ENDBRANCH  18  19
ENDBRANCH   1  18
TORSDOF 10
ENDMDL
MODEL 8
REMARK VINA RESULT:    -6.057      0.945      1.511
REMARK INTER + INTRA:          -9.015
REMARK INTER:                  -8.594
REMARK INTRA:                  -0.421
REMARK UNBOUND:                -0.302
REMARK  Name = opt06.pdb
REMARK  10 active torsions:
REMARK  status: ('A' for Active; 'I' for Inactive)
REMARK    1  A    between atoms: C_2  and  O_3
REMARK    2  A    between atoms: C_2  and  C_4
REMARK    3  A    between atoms: O_3  and  C_5
REMARK    4  A    between atoms: C_6  and  C_9
REMARK    5  A    between atoms: C_7  and  O_10
REMARK    6  A    between atoms: C_11  and  O_15
REMARK    7  A    between atoms: C_12  and  O_17
REMARK    8  A    between atoms: C_12  and  C_18
REMARK    9  A    between atoms: C_19  and  O_23
REMARK   10  A    between atoms: C_24  and  O_25
REMARK                            x       y       z     vdW  Elec       q    Type
REMARK                         _______ _______ _______ _____ _____    ______ ____
ROOT
ATOM      1  O   UNL     1       9.873  11.911  42.576  0.00  0.00    +0.000 OA
ENDROOT
BRANCH   1   2
ATOM      2  C   UNL     1       8.946  13.049  42.614  0.00  0.00    +0.000 C 
ATOM      3  C   UNL     1       7.812  12.857  41.576  0.00  0.00    +0.000 C 
ATOM      4  C   UNL     1       8.396  13.371  44.028  0.00  0.00    +0.000 C 
ATOM      5  C   UNL     1       6.844  14.064  41.568  0.00  0.00    +0.000 C 
ATOM      6  C   UNL     1       7.502  14.640  43.985  0.00  0.00    +0.000 C 
ATOM      7  C   UNL     1       6.331  14.399  42.990  0.00  0.00    +0.000 C 
BRANCH   6   8
ATOM      8  C   UNL     1       8.319  15.884  43.632  0.00  0.00    +0.000 C 
ATOM      9  O   UNL     1       7.721  16.862  43.226  0.00  0.00    +0.000 OA
ATOM     10  O   UNL     1       9.521  15.867  43.810  0.00  0.00    +0.000 OA
ENDBRANCH   6   8
BRANCH   6  11
ATOM     11  O   UNL     1       6.940  14.830  45.292  0.00  0.00    +0.000 OA
ATOM     12  H   UNL     1       6.308  15.565  45.237  0.00  0.00    +0.000 HD
ENDBRANCH   6  11
BRANCH   3  13
ATOM     13  O   UNL     1       7.070  11.648  41.816  0.00  0.00    +0.000 OA
ATOM     14  H   UNL     1       6.362  11.865  42.455  0.00  0.00    +0.000 HD
ENDBRANCH   3  13
BRANCH   5  15
ATOM     15  O   UNL     1       5.738  13.709  40.734  0.00  0.00    +0.000 OA
ATOM     16  H   UNL     1       6.101  13.769  39.829  0.00  0.00    +0.000 HD
ENDBRANCH   5  15
ENDBRANCH   1   2
BRANCH   1  18
ATOM     17  O   UNL     1      11.186  11.507  40.733  0.00  0.00    +0.000 OA
ATOM     18  C   UNL     1      11.035  11.881  41.880  0.00  0.00    +0.000 C 
BRANCH  18  19
ATOM     19  C   UNL     1      12.165  12.412  42.672  0.00  0.00    +0.000 C 
ATOM     20  C   UNL     1      13.483  12.327  42.420  0.00  0.00    +0.000 C 
BRANCH  20  21
ATOM     21  C   UNL     1      14.579  12.900  43.230  0.00  0.00    +0.000 A 
ATOM     22  C   UNL     1      15.738  13.391  42.620  0.00  0.00    +0.000 A 
ATOM     23  C   UNL     1      14.448  12.962  44.620  0.00  0.00    +0.000 A 
ATOM     24  C   UNL     1      16.756  13.947  43.401  0.00  0.00    +0.000 A 
ATOM     25  C   UNL     1      15.465  13.504  45.400  0.00  0.00    +0.000 A 
ATOM     26  C   UNL     1      16.611  14.000  44.788  0.00  0.00    +0.000 A 
BRANCH  26  27
ATOM     27  O   UNL     1      17.602  14.557  45.529  0.00  0.00    +0.000 OA
ATOM     28  H   UNL     1      17.148  15.201  46.108  0.00  0.00    +0.000 HD
ENDBRANCH  26  27
BRANCH  24  29
ATOM     29  O   UNL     1      17.901  14.448  42.838  0.00  0.00    +0.000 OA
ATOM     30  H   UNL     1      18.360  15.049  43.449  0.00  0.00    +0.000 HD
ENDBRANCH  24  29
ENDBRANCH  20  21
ENDBRANCH  18  19
ENDBRANCH   1  18
TORSDOF 10
ENDMDL
MODEL 9
REMARK VINA RESULT:    -5.876      2.637      7.991
REMARK INTER + INTRA:          -8.754
REMARK INTER:                  -8.179
REMARK INTRA:                  -0.576
REMARK UNBOUND:                -0.302
REMARK  Name = opt06.pdb
REMARK  10 active torsions:
REMARK  status: ('A' for Active; 'I' for Inactive)
REMARK    1  A    between atoms: C_2  and  O_3
REMARK    2  A    between atoms: C_2  and  C_4
REMARK    3  A    between atoms: O_3  and  C_5
REMARK    4  A    between atoms: C_6  and  C_9
REMARK    5  A    between atoms: C_7  and  O_10
REMARK    6  A    between atoms: C_11  and  O_15
REMARK    7  A    between atoms: C_12  and  O_17
REMARK    8  A    between atoms: C_12  and  C_18
REMARK    9  A    between atoms: C_19  and  O_23
REMARK   10  A    between atoms: C_24  and  O_25
REMARK                            x       y       z     vdW  Elec       q    Type
REMARK                         _______ _______ _______ _____ _____    ______ ____
ROOT
ATOM      1  O   UNL     1      13.388  12.497  42.626  0.00  0.00    +0.000 OA
ENDROOT
BRANCH   1   2
ATOM      2  C   UNL     1      14.456  13.393  43.089  0.00  0.00    +0.000 C 
ATOM      3  C   UNL     1      14.896  13.011  44.525  0.00  0.00    +0.000 C 
ATOM      4  C   UNL     1      15.661  13.499  42.118  0.00  0.00    +0.000 C 
ATOM      5  C   UNL     1      15.992  13.966  45.053  0.00  0.00    +0.000 C 
ATOM      6  C   UNL     1      16.692  14.533  42.645  0.00  0.00    +0.000 C 
ATOM      7  C   UNL     1      17.172  14.093  44.058  0.00  0.00    +0.000 C 
BRANCH   6   8
ATOM      8  C   UNL     1      16.110  15.949  42.643  0.00  0.00    +0.000 C 
ATOM      9  O   UNL     1      16.383  16.677  43.577  0.00  0.00    +0.000 OA
ATOM     10  O   UNL     1      15.438  16.306  41.695  0.00  0.00    +0.000 OA
ENDBRANCH   6   8
BRANCH   6  11
ATOM     11  O   UNL     1      17.826  14.514  41.767  0.00  0.00    +0.000 OA
ATOM     12  H   UNL     1      18.448  13.849  42.103  0.00  0.00    +0.000 HD
ENDBRANCH   6  11
BRANCH   3  13
ATOM     13  O   UNL     1      15.368  11.653  44.593  0.00  0.00    +0.000 OA
ATOM     14  H   UNL     1      15.449  11.328  43.675  0.00  0.00    +0.000 HD
ENDBRANCH   3  13
BRANCH   5  15
ATOM     15  O   UNL     1      16.466  13.420  46.286  0.00  0.00    +0.000 OA
ATOM     16  H   UNL     1      16.898  14.179  46.725  0.00  0.00    +0.000 HD
ENDBRANCH   5  15
ENDBRANCH   1   2
BRANCH   1  18
ATOM     17  O   UNL     1      11.445  11.608  43.470  0.00  0.00    +0.000 OA
ATOM     18  C   UNL     1      12.102  12.541  43.050  0.00  0.00    +0.000 C 
BRANCH  18  19
ATOM     19  C   UNL     1      11.547  13.909  42.990  0.00  0.00    +0.000 C 
ATOM     20  C   UNL     1      10.462  14.405  43.609  0.00  0.00    +0.000 C 
BRANCH  20  21
ATOM     21  C   UNL     1       9.960  15.794  43.541  0.00  0.00    +0.000 A 
ATOM     22  C   UNL     1      10.847  16.872  43.447  0.00  0.00    +0.000 A 
ATOM     23  C   UNL     1       8.584  16.030  43.560  0.00  0.00    +0.000 A 
ATOM     24  C   UNL     1      10.353  18.177  43.366  0.00  0.00    +0.000 A 
ATOM     25  C   UNL     1       8.090  17.329  43.490  0.00  0.00    +0.000 A 
ATOM     26  C   UNL     1       8.975  18.397  43.387  0.00  0.00    +0.000 A 
BRANCH  26  27
ATOM     27  O   UNL     1       8.512  19.669  43.290  0.00  0.00    +0.000 OA
ATOM     28  H   UNL     1       8.421  19.972  44.215  0.00  0.00    +0.000 HD
ENDBRANCH  26  27
BRANCH  24  29
ATOM     29  O   UNL     1      11.191  19.257  43.261  0.00  0.00    +0.000 OA
ATOM     30  H   UNL     1      11.322  19.513  42.332  0.00  0.00    +0.000 HD
ENDBRANCH  24  29
ENDBRANCH  20  21
ENDBRANCH  18  19
ENDBRANCH   1  18
TORSDOF 10
ENDMDL
MODEL 10
REMARK VINA RESULT:    -5.809      1.761      3.218
REMARK INTER + INTRA:          -8.658
REMARK INTER:                  -8.406
REMARK INTRA:                  -0.252
REMARK UNBOUND:                -0.302
REMARK  Name = opt06.pdb
REMARK  10 active torsions:
REMARK  status: ('A' for Active; 'I' for Inactive)
REMARK    1  A    between atoms: C_2  and  O_3
REMARK    2  A    between atoms: C_2  and  C_4
REMARK    3  A    between atoms: O_3  and  C_5
REMARK    4  A    between atoms: C_6  and  C_9
REMARK    5  A    between atoms: C_7  and  O_10
REMARK    6  A    between atoms: C_11  and  O_15
REMARK    7  A    between atoms: C_12  and  O_17
REMARK    8  A    between atoms: C_12  and  C_18
REMARK    9  A    between atoms: C_19  and  O_23
REMARK   10  A    between atoms: C_24  and  O_25
REMARK                            x       y       z     vdW  Elec       q    Type
REMARK                         _______ _______ _______ _____ _____    ______ ____
ROOT
ATOM      1  O   UNL     1      10.366  13.635  43.347  0.00  0.00    +0.000 OA
ENDROOT
BRANCH   1   2
ATOM      2  C   UNL     1       8.929  13.335  43.300  0.00  0.00    +0.000 C 
ATOM      3  C   UNL     1       8.101  14.604  43.625  0.00  0.00    +0.000 C 
ATOM      4  C   UNL     1       8.466  12.656  41.985  0.00  0.00    +0.000 C 
ATOM      5  C   UNL     1       6.584  14.304  43.623  0.00  0.00    +0.000 C 
ATOM      6  C   UNL     1       6.958  12.294  42.064  0.00  0.00    +0.000 C 
ATOM      7  C   UNL     1       6.140  13.593  42.320  0.00  0.00    +0.000 C 
BRANCH   6   8
ATOM      8  C   UNL     1       6.698  11.223  43.125  0.00  0.00    +0.000 C 
ATOM      9  O   UNL     1       5.622  11.232  43.691  0.00  0.00    +0.000 OA
ATOM     10  O   UNL     1       7.551  10.382  43.332  0.00  0.00    +0.000 OA
ENDBRANCH   6   8
BRANCH   6  11
ATOM     11  O   UNL     1       6.562  11.767  40.789  0.00  0.00    +0.000 OA
ATOM     12  H   UNL     1       6.174  10.890  40.941  0.00  0.00    +0.000 HD
ENDBRANCH   6  11
BRANCH   3  13
ATOM     13  O   UNL     1       8.381  15.672  42.702  0.00  0.00    +0.000 OA
ATOM     14  H   UNL     1       7.523  16.051  42.428  0.00  0.00    +0.000 HD
ENDBRANCH   3  13
BRANCH   5  15
ATOM     15  O   UNL     1       5.908  15.559  43.733  0.00  0.00    +0.000 OA
ATOM     16  H   UNL     1       5.933  15.753  44.691  0.00  0.00    +0.000 HD
ENDBRANCH   5  15
ENDBRANCH   1   2
BRANCH   1  18
ATOM     17  O   UNL     1      11.271  11.525  43.246  0.00  0.00    +0.000 OA
ATOM     18  C   UNL     1      11.346  12.712  43.499  0.00  0.00    +0.000 C 
BRANCH  18  19
ATOM     19  C   UNL     1      12.601  13.316  43.994  0.00  0.00    +0.000 C 
ATOM     20  C   UNL     1      12.951  14.613  44.036  0.00  0.00    +0.000 C 
BRANCH  20  21
ATOM     21  C   UNL     1      14.212  15.174  44.568  0.00  0.00    +0.000 A 
ATOM     22  C   UNL     1      15.303  14.344  44.848  0.00  0.00    +0.000 A 
ATOM     23  C   UNL     1      14.316  16.550  44.783  0.00  0.00    +0.000 A 
ATOM     24  C   UNL     1      16.492  14.895  45.333  0.00  0.00    +0.000 A 
ATOM     25  C   UNL     1      15.496  17.099  45.276  0.00  0.00    +0.000 A 
ATOM     26  C   UNL     1      16.580  16.271  45.543  0.00  0.00    +0.000 A 
BRANCH  26  27
ATOM     27  O   UNL     1      17.748  16.792  45.999  0.00  0.00    +0.000 OA
ATOM     28  H   UNL     1      17.743  16.611  46.960  0.00  0.00    +0.000 HD
ENDBRANCH  26  27
BRANCH  24  29
ATOM     29  O   UNL     1      17.586  14.115  45.607  0.00  0.00    +0.000 OA
ATOM     30  H   UNL     1      17.320  13.231  45.913  0.00  0.00    +0.000 HD
ENDBRANCH  24  29
ENDBRANCH  20  21
ENDBRANCH  18  19
ENDBRANCH   1  18
TORSDOF 10
ENDMDL
MODEL 11
REMARK VINA RESULT:    -5.756      2.115      4.244
REMARK INTER + INTRA:          -8.582
REMARK INTER:                  -7.910
REMARK INTRA:                  -0.671
REMARK UNBOUND:                -0.302
REMARK  Name = opt06.pdb
REMARK  10 active torsions:
REMARK  status: ('A' for Active; 'I' for Inactive)
REMARK    1  A    between atoms: C_2  and  O_3
REMARK    2  A    between atoms: C_2  and  C_4
REMARK    3  A    between atoms: O_3  and  C_5
REMARK    4  A    between atoms: C_6  and  C_9
REMARK    5  A    between atoms: C_7  and  O_10
REMARK    6  A    between atoms: C_11  and  O_15
REMARK    7  A    between atoms: C_12  and  O_17
REMARK    8  A    between atoms: C_12  and  C_18
REMARK    9  A    between atoms: C_19  and  O_23
REMARK   10  A    between atoms: C_24  and  O_25
REMARK                            x       y       z     vdW  Elec       q    Type
REMARK                         _______ _______ _______ _____ _____    ______ ____
ROOT
ATOM      1  O   UNL     1       8.392  16.766  42.937  0.00  0.00    +0.000 OA
ENDROOT
BRANCH   1   2
ATOM      2  C   UNL     1       7.785  15.439  43.108  0.00  0.00    +0.000 C 
ATOM      3  C   UNL     1       6.971  15.384  44.426  0.00  0.00    +0.000 C 
ATOM      4  C   UNL     1       6.955  14.960  41.888  0.00  0.00    +0.000 C 
ATOM      5  C   UNL     1       6.356  13.982  44.650  0.00  0.00    +0.000 C 
ATOM      6  C   UNL     1       6.432  13.517  42.123  0.00  0.00    +0.000 C 
ATOM      7  C   UNL     1       5.561  13.499  43.412  0.00  0.00    +0.000 C 
BRANCH   6   8
ATOM      8  C   UNL     1       7.584  12.511  42.185  0.00  0.00    +0.000 C 
ATOM      9  O   UNL     1       7.434  11.515  42.865  0.00  0.00    +0.000 OA
ATOM     10  O   UNL     1       8.582  12.720  41.523  0.00  0.00    +0.000 OA
ENDBRANCH   6   8
BRANCH   6  11
ATOM     11  O   UNL     1       5.590  13.166  41.015  0.00  0.00    +0.000 OA
ATOM     12  H   UNL     1       5.225  13.988  40.651  0.00  0.00    +0.000 HD
ENDBRANCH   6  11
BRANCH   3  13
ATOM     13  O   UNL     1       5.930  16.376  44.450  0.00  0.00    +0.000 OA
ATOM     14  H   UNL     1       6.355  17.246  44.324  0.00  0.00    +0.000 HD
ENDBRANCH   3  13
BRANCH   5  15
ATOM     15  O   UNL     1       5.474  14.086  45.771  0.00  0.00    +0.000 OA
ATOM     16  H   UNL     1       6.025  13.807  46.527  0.00  0.00    +0.000 HD
ENDBRANCH   5  15
ENDBRANCH   1   2
BRANCH   1  18
ATOM     17  O   UNL     1      10.211  18.157  43.129  0.00  0.00    +0.000 OA
ATOM     18  C   UNL     1       9.695  17.057  43.167  0.00  0.00    +0.000 C 
BRANCH  18  19
ATOM     19  C   UNL     1      10.474  15.853  43.526  0.00  0.00    +0.000 C 
ATOM     20  C   UNL     1      11.602  15.383  42.967  0.00  0.00    +0.000 C 
BRANCH  20  21
ATOM     21  C   UNL     1      12.364  14.186  43.381  0.00  0.00    +0.000 A 
ATOM     22  C   UNL     1      11.815  12.906  43.247  0.00  0.00    +0.000 A 
ATOM     23  C   UNL     1      13.652  14.335  43.901  0.00  0.00    +0.000 A 
ATOM     24  C   UNL     1      12.558  11.785  43.627  0.00  0.00    +0.000 A 
ATOM     25  C   UNL     1      14.389  13.221  44.290  0.00  0.00    +0.000 A 
ATOM     26  C   UNL     1      13.843  11.950  44.146  0.00  0.00    +0.000 A 
BRANCH  26  27
ATOM     27  O   UNL     1      14.556  10.850  44.494  0.00  0.00    +0.000 OA
ATOM     28  H   UNL     1      14.789  10.991  45.433  0.00  0.00    +0.000 HD
ENDBRANCH  26  27
BRANCH  24  29
ATOM     29  O   UNL     1      12.057  10.514  43.500  0.00  0.00    +0.000 OA
ATOM     30  H   UNL     1      11.672  10.203  44.337  0.00  0.00    +0.000 HD
ENDBRANCH  24  29
ENDBRANCH  20  21
ENDBRANCH  18  19
ENDBRANCH   1  18
TORSDOF 10
ENDMDL
MODEL 12
REMARK VINA RESULT:    -5.692      2.329      7.961
REMARK INTER + INTRA:          -8.489
REMARK INTER:                  -7.780
REMARK INTRA:                  -0.709
REMARK UNBOUND:                -0.302
REMARK  Name = opt06.pdb
REMARK  10 active torsions:
REMARK  status: ('A' for Active; 'I' for Inactive)
REMARK    1  A    between atoms: C_2  and  O_3
REMARK    2  A    between atoms: C_2  and  C_4
REMARK    3  A    between atoms: O_3  and  C_5
REMARK    4  A    between atoms: C_6  and  C_9
REMARK    5  A    between atoms: C_7  and  O_10
REMARK    6  A    between atoms: C_11  and  O_15
REMARK    7  A    between atoms: C_12  and  O_17
REMARK    8  A    between atoms: C_12  and  C_18
REMARK    9  A    between atoms: C_19  and  O_23
REMARK   10  A    between atoms: C_24  and  O_25
REMARK                            x       y       z     vdW  Elec       q    Type
REMARK                         _______ _______ _______ _____ _____    ______ ____
ROOT
ATOM      1  O   UNL     1      12.248  16.930  43.629  0.00  0.00    +0.000 OA
ENDROOT
BRANCH   1   2
ATOM      2  C   UNL     1      12.815  15.587  43.451  0.00  0.00    +0.000 C 
ATOM      3  C   UNL     1      14.054  15.643  42.521  0.00  0.00    +0.000 C 
ATOM      4  C   UNL     1      13.115  14.844  44.780  0.00  0.00    +0.000 C 
ATOM      5  C   UNL     1      14.645  14.233  42.285  0.00  0.00    +0.000 C 
ATOM      6  C   UNL     1      13.623  13.405  44.493  0.00  0.00    +0.000 C 
ATOM      7  C   UNL     1      14.906  13.488  43.618  0.00  0.00    +0.000 C 
BRANCH   6   8
ATOM      8  C   UNL     1      12.531  12.549  43.848  0.00  0.00    +0.000 C 
ATOM      9  O   UNL     1      12.877  11.594  43.180  0.00  0.00    +0.000 OA
ATOM     10  O   UNL     1      11.366  12.825  44.059  0.00  0.00    +0.000 OA
ENDBRANCH   6   8
BRANCH   6  11
ATOM     11  O   UNL     1      13.980  12.804  45.746  0.00  0.00    +0.000 OA
ATOM     12  H   UNL     1      13.189  12.804  46.309  0.00  0.00    +0.000 HD
ENDBRANCH   6  11
BRANCH   3  13
ATOM     13  O   UNL     1      15.074  16.510  43.047  0.00  0.00    +0.000 OA
ATOM     14  H   UNL     1      15.524  16.924  42.284  0.00  0.00    +0.000 HD
ENDBRANCH   3  13
BRANCH   5  15
ATOM     15  O   UNL     1      15.882  14.409  41.589  0.00  0.00    +0.000 OA
ATOM     16  H   UNL     1      16.426  14.930  42.211  0.00  0.00    +0.000 HD
ENDBRANCH   5  15
ENDBRANCH   1   2
BRANCH   1  18
ATOM     17  O   UNL     1      10.587  18.348  42.914  0.00  0.00    +0.000 OA
ATOM     18  C   UNL     1      10.970  17.275  43.340  0.00  0.00    +0.000 C 
BRANCH  18  19
ATOM     19  C   UNL     1      10.031  16.156  43.562  0.00  0.00    +0.000 C 
ATOM     20  C   UNL     1       9.189  15.577  42.689  0.00  0.00    +0.000 C 
BRANCH  20  21
ATOM     21  C   UNL     1       8.286  14.436  42.952  0.00  0.00    +0.000 A 
ATOM     22  C   UNL     1       7.930  13.555  41.926  0.00  0.00    +0.000 A 
ATOM     23  C   UNL     1       7.792  14.232  44.243  0.00  0.00    +0.000 A 
ATOM     24  C   UNL     1       7.090  12.471  42.197  0.00  0.00    +0.000 A 
ATOM     25  C   UNL     1       6.947  13.160  44.512  0.00  0.00    +0.000 A 
ATOM     26  C   UNL     1       6.604  12.281  43.491  0.00  0.00    +0.000 A 
BRANCH  26  27
ATOM     27  O   UNL     1       5.802  11.215  43.740  0.00  0.00    +0.000 OA
ATOM     28  H   UNL     1       4.901  11.589  43.801  0.00  0.00    +0.000 HD
ENDBRANCH  26  27
BRANCH  24  29
ATOM     29  O   UNL     1       6.728  11.580  41.219  0.00  0.00    +0.000 OA
ATOM     30  H   UNL     1       5.991  11.017  41.511  0.00  0.00    +0.000 HD
ENDBRANCH  24  29
ENDBRANCH  20  21
ENDBRANCH  18  19
ENDBRANCH   1  18
TORSDOF 10
ENDMDL
MODEL 13
REMARK VINA RESULT:    -5.599      1.321      1.740
REMARK INTER + INTRA:          -8.355
REMARK INTER:                  -7.927
REMARK INTRA:                  -0.428
REMARK UNBOUND:                -0.302
REMARK  Name = opt06.pdb
REMARK  10 active torsions:
REMARK  status: ('A' for Active; 'I' for Inactive)
REMARK    1  A    between atoms: C_2  and  O_3
REMARK    2  A    between atoms: C_2  and  C_4
REMARK    3  A    between atoms: O_3  and  C_5
REMARK    4  A    between atoms: C_6  and  C_9
REMARK    5  A    between atoms: C_7  and  O_10
REMARK    6  A    between atoms: C_11  and  O_15
REMARK    7  A    between atoms: C_12  and  O_17
REMARK    8  A    between atoms: C_12  and  C_18
REMARK    9  A    between atoms: C_19  and  O_23
REMARK   10  A    between atoms: C_24  and  O_25
REMARK                            x       y       z     vdW  Elec       q    Type
REMARK                         _______ _______ _______ _____ _____    ______ ____
ROOT
ATOM      1  O   UNL     1      10.167  12.297  43.656  0.00  0.00    +0.000 OA
ENDROOT
BRANCH   1   2
ATOM      2  C   UNL     1       9.012  13.154  43.358  0.00  0.00    +0.000 C 
ATOM      3  C   UNL     1       8.035  12.428  42.399  0.00  0.00    +0.000 C 
ATOM      4  C   UNL     1       8.293  13.708  44.616  0.00  0.00    +0.000 C 
ATOM      5  C   UNL     1       6.829  13.326  42.037  0.00  0.00    +0.000 C 
ATOM      6  C   UNL     1       7.148  14.672  44.204  0.00  0.00    +0.000 C 
ATOM      7  C   UNL     1       6.142  13.904  43.300  0.00  0.00    +0.000 C 
BRANCH   6   8
ATOM      8  C   UNL     1       7.697  15.930  43.527  0.00  0.00    +0.000 C 
ATOM      9  O   UNL     1       8.841  16.257  43.777  0.00  0.00    +0.000 OA
ATOM     10  O   UNL     1       6.991  16.527  42.738  0.00  0.00    +0.000 OA
ENDBRANCH   6   8
BRANCH   6  11
ATOM     11  O   UNL     1       6.456  15.071  45.396  0.00  0.00    +0.000 OA
ATOM     12  H   UNL     1       5.652  15.544  45.126  0.00  0.00    +0.000 HD
ENDBRANCH   6  11
BRANCH   3  13
ATOM     13  O   UNL     1       7.560  11.190  42.959  0.00  0.00    +0.000 OA
ATOM     14  H   UNL     1       6.848  11.412  43.591  0.00  0.00    +0.000 HD
ENDBRANCH   3  13
BRANCH   5  15
ATOM     15  O   UNL     1       5.898  12.511  41.321  0.00  0.00    +0.000 OA
ATOM     16  H   UNL     1       5.910  11.664  41.807  0.00  0.00    +0.000 HD
ENDBRANCH   5  15
ENDBRANCH   1   2
BRANCH   1  18
ATOM     17  O   UNL     1      11.286  11.367  41.877  0.00  0.00    +0.000 OA
ATOM     18  C   UNL     1      11.229  12.114  42.834  0.00  0.00    +0.000 C 
BRANCH  18  19
ATOM     19  C   UNL     1      12.366  12.984  43.201  0.00  0.00    +0.000 C 
ATOM     20  C   UNL     1      13.086  12.995  44.335  0.00  0.00    +0.000 C 
BRANCH  20  21
ATOM     21  C   UNL     1      14.238  13.868  44.646  0.00  0.00    +0.000 A 
ATOM     22  C   UNL     1      14.272  15.194  44.202  0.00  0.00    +0.000 A 
ATOM     23  C   UNL     1      15.300  13.364  45.402  0.00  0.00    +0.000 A 
ATOM     24  C   UNL     1      15.361  16.010  44.522  0.00  0.00    +0.000 A 
ATOM     25  C   UNL     1      16.390  14.171  45.712  0.00  0.00    +0.000 A 
ATOM     26  C   UNL     1      16.414  15.492  45.276  0.00  0.00    +0.000 A 
BRANCH  26  27
ATOM     27  O   UNL     1      17.456  16.302  45.591  0.00  0.00    +0.000 OA
ATOM     28  H   UNL     1      18.118  15.709  45.999  0.00  0.00    +0.000 HD
ENDBRANCH  26  27
BRANCH  24  29
ATOM     29  O   UNL     1      15.423  17.317  44.114  0.00  0.00    +0.000 OA
ATOM     30  H   UNL     1      14.917  17.455  43.294  0.00  0.00    +0.000 HD
ENDBRANCH  24  29
ENDBRANCH  20  21
ENDBRANCH  18  19
ENDBRANCH   1  18
TORSDOF 10
ENDMDL
MODEL 14
REMARK VINA RESULT:    -5.572      2.797      3.991
REMARK INTER + INTRA:          -8.317
REMARK INTER:                  -7.672
REMARK INTRA:                  -0.645
REMARK UNBOUND:                -0.302
REMARK  Name = opt06.pdb
REMARK  10 active torsions:
REMARK  status: ('A' for Active; 'I' for Inactive)
REMARK    1  A    between atoms: C_2  and  O_3
REMARK    2  A    between atoms: C_2  and  C_4
REMARK    3  A    between atoms: O_3  and  C_5
REMARK    4  A    between atoms: C_6  and  C_9
REMARK    5  A    between atoms: C_7  and  O_10
REMARK    6  A    between atoms: C_11  and  O_15
REMARK    7  A    between atoms: C_12  and  O_17
REMARK    8  A    between atoms: C_12  and  C_18
REMARK    9  A    between atoms: C_19  and  O_23
REMARK   10  A    between atoms: C_24  and  O_25
REMARK                            x       y       z     vdW  Elec       q    Type
REMARK                         _______ _______ _______ _____ _____    ______ ____
ROOT
ATOM      1  O   UNL     1      12.604  12.676  44.592  0.00  0.00    +0.000 OA
ENDROOT
BRANCH   1   2
ATOM      2  C   UNL     1      12.158  13.878  43.875  0.00  0.00    +0.000 C 
ATOM      3  C   UNL     1      10.757  13.648  43.254  0.00  0.00    +0.000 C 
ATOM      4  C   UNL     1      12.218  15.178  44.720  0.00  0.00    +0.000 C 
ATOM      5  C   UNL     1      10.283  14.887  42.458  0.00  0.00    +0.000 C 
ATOM      6  C   UNL     1      11.818  16.404  43.855  0.00  0.00    +0.000 C 
ATOM      7  C   UNL     1      10.382  16.184  43.300  0.00  0.00    +0.000 C 
BRANCH   6   8
ATOM      8  C   UNL     1      12.839  16.657  42.744  0.00  0.00    +0.000 C 
ATOM      9  O   UNL     1      12.451  17.198  41.726  0.00  0.00    +0.000 OA
ATOM     10  O   UNL     1      14.000  16.352  42.933  0.00  0.00    +0.000 OA
ENDBRANCH   6   8
BRANCH   6  11
ATOM     11  O   UNL     1      11.790  17.557  44.708  0.00  0.00    +0.000 OA
ATOM     12  H   UNL     1      10.944  18.011  44.563  0.00  0.00    +0.000 HD
ENDBRANCH   6  11
BRANCH   3  13
ATOM     13  O   UNL     1       9.779  13.318  44.257  0.00  0.00    +0.000 OA
ATOM     14  H   UNL     1       9.239  14.119  44.410  0.00  0.00    +0.000 HD
ENDBRANCH   3  13
BRANCH   5  15
ATOM     15  O   UNL     1       8.918  14.657  42.098  0.00  0.00    +0.000 OA
ATOM     16  H   UNL     1       8.918  14.744  41.125  0.00  0.00    +0.000 HD
ENDBRANCH   5  15
ENDBRANCH   1   2
BRANCH   1  18
ATOM     17  O   UNL     1      14.101  10.938  44.451  0.00  0.00    +0.000 OA
ATOM     18  C   UNL     1      13.837  12.124  44.488  0.00  0.00    +0.000 C 
BRANCH  18  19
ATOM     19  C   UNL     1      14.893  13.152  44.377  0.00  0.00    +0.000 C 
ATOM     20  C   UNL     1      15.631  13.710  45.351  0.00  0.00    +0.000 C 
BRANCH  20  21
ATOM     21  C   UNL     1      16.700  14.718  45.188  0.00  0.00    +0.000 A 
ATOM     22  C   UNL     1      17.962  14.351  44.709  0.00  0.00    +0.000 A 
ATOM     23  C   UNL     1      16.442  16.053  45.506  0.00  0.00    +0.000 A 
ATOM     24  C   UNL     1      18.955  15.321  44.544  0.00  0.00    +0.000 A 
ATOM     25  C   UNL     1      17.432  17.019  45.353  0.00  0.00    +0.000 A 
ATOM     26  C   UNL     1      18.682  16.650  44.867  0.00  0.00    +0.000 A 
BRANCH  26  27
ATOM     27  O   UNL     1      19.652  17.582  44.685  0.00  0.00    +0.000 OA
ATOM     28  H   UNL     1      20.491  17.089  44.775  0.00  0.00    +0.000 HD
ENDBRANCH  26  27
BRANCH  24  29
ATOM     29  O   UNL     1      20.200  15.001  44.066  0.00  0.00    +0.000 OA
ATOM     30  H   UNL     1      20.147  14.316  43.377  0.00  0.00    +0.000 HD
ENDBRANCH  24  29
ENDBRANCH  20  21
ENDBRANCH  18  19
ENDBRANCH   1  18
TORSDOF 10
ENDMDL
MODEL 15
REMARK VINA RESULT:    -5.568      2.480      8.247
REMARK INTER + INTRA:          -8.312
REMARK INTER:                  -7.738
REMARK INTRA:                  -0.573
REMARK UNBOUND:                -0.302
REMARK  Name = opt06.pdb
REMARK  10 active torsions:
REMARK  status: ('A' for Active; 'I' for Inactive)
REMARK    1  A    between atoms: C_2  and  O_3
REMARK    2  A    between atoms: C_2  and  C_4
REMARK    3  A    between atoms: O_3  and  C_5
REMARK    4  A    between atoms: C_6  and  C_9
REMARK    5  A    between atoms: C_7  and  O_10
REMARK    6  A    between atoms: C_11  and  O_15
REMARK    7  A    between atoms: C_12  and  O_17
REMARK    8  A    between atoms: C_12  and  C_18
REMARK    9  A    between atoms: C_19  and  O_23
REMARK   10  A    between atoms: C_24  and  O_25
REMARK                            x       y       z     vdW  Elec       q    Type
REMARK                         _______ _______ _______ _____ _____    ______ ____
ROOT
ATOM      1  O   UNL     1      12.403  16.816  43.494  0.00  0.00    +0.000 OA
ENDROOT
BRANCH   1   2
ATOM      2  C   UNL     1      13.407  15.754  43.640  0.00  0.00    +0.000 C 
ATOM      3  C   UNL     1      14.783  16.360  44.017  0.00  0.00    +0.000 C 
ATOM      4  C   UNL     1      12.987  14.613  44.603  0.00  0.00    +0.000 C 
ATOM      5  C   UNL     1      15.868  15.264  44.136  0.00  0.00    +0.000 C 
ATOM      6  C   UNL     1      14.066  13.496  44.622  0.00  0.00    +0.000 C 
ATOM      7  C   UNL     1      15.422  14.113  45.071  0.00  0.00    +0.000 C 
BRANCH   6   8
ATOM      8  C   UNL     1      14.165  12.796  43.266  0.00  0.00    +0.000 C 
ATOM      9  O   UNL     1      15.269  12.469  42.873  0.00  0.00    +0.000 OA
ATOM     10  O   UNL     1      13.143  12.553  42.654  0.00  0.00    +0.000 OA
ENDBRANCH   6   8
BRANCH   6  11
ATOM     11  O   UNL     1      13.678  12.522  45.602  0.00  0.00    +0.000 OA
ATOM     12  H   UNL     1      12.859  12.103  45.291  0.00  0.00    +0.000 HD
ENDBRANCH   6  11
BRANCH   3  13
ATOM     13  O   UNL     1      14.717  17.106  45.245  0.00  0.00    +0.000 OA
ATOM     14  H   UNL     1      13.999  16.718  45.782  0.00  0.00    +0.000 HD
ENDBRANCH   3  13
BRANCH   5  15
ATOM     15  O   UNL     1      17.037  15.888  44.674  0.00  0.00    +0.000 OA
ATOM     16  H   UNL     1      17.009  15.654  45.622  0.00  0.00    +0.000 HD
ENDBRANCH   5  15
ENDBRANCH   1   2
BRANCH   1  18
ATOM     17  O   UNL     1      11.507  17.475  41.483  0.00  0.00    +0.000 OA
ATOM     18  C   UNL     1      11.453  16.857  42.528  0.00  0.00    +0.000 C 
BRANCH  18  19
ATOM     19  C   UNL     1      10.294  16.002  42.858  0.00  0.00    +0.000 C 
ATOM     20  C   UNL     1       9.992  14.777  42.394  0.00  0.00    +0.000 C 
BRANCH  20  21
ATOM     21  C   UNL     1       8.831  13.946  42.776  0.00  0.00    +0.000 A 
ATOM     22  C   UNL     1       8.220  13.098  41.847  0.00  0.00    +0.000 A 
ATOM     23  C   UNL     1       8.346  14.001  44.086  0.00  0.00    +0.000 A 
ATOM     24  C   UNL     1       7.135  12.306  42.232  0.00  0.00    +0.000 A 
ATOM     25  C   UNL     1       7.258  13.221  44.468  0.00  0.00    +0.000 A 
ATOM     26  C   UNL     1       6.661  12.373  43.542  0.00  0.00    +0.000 A 
BRANCH  26  27
ATOM     27  O   UNL     1       5.617  11.585  43.904  0.00  0.00    +0.000 OA
ATOM     28  H   UNL     1       5.734  10.764  43.387  0.00  0.00    +0.000 HD
ENDBRANCH  26  27
BRANCH  24  29
ATOM     29  O   UNL     1       6.518  11.454  41.351  0.00  0.00    +0.000 OA
ATOM     30  H   UNL     1       6.450  11.852  40.466  0.00  0.00    +0.000 HD
ENDBRANCH  24  29
ENDBRANCH  20  21
ENDBRANCH  18  19
ENDBRANCH   1  18
TORSDOF 10
ENDMDL
MODEL 16
REMARK VINA RESULT:    -5.553      2.149      8.901
REMARK INTER + INTRA:          -8.289
REMARK INTER:                  -7.989
REMARK INTRA:                  -0.300
REMARK UNBOUND:                -0.302
REMARK  Name = opt06.pdb
REMARK  10 active torsions:
REMARK  status: ('A' for Active; 'I' for Inactive)
REMARK    1  A    between atoms: C_2  and  O_3
REMARK    2  A    between atoms: C_2  and  C_4
REMARK    3  A    between atoms: O_3  and  C_5
REMARK    4  A    between atoms: C_6  and  C_9
REMARK    5  A    between atoms: C_7  and  O_10
REMARK    6  A    between atoms: C_11  and  O_15
REMARK    7  A    between atoms: C_12  and  O_17
REMARK    8  A    between atoms: C_12  and  C_18
REMARK    9  A    between atoms: C_19  and  O_23
REMARK   10  A    between atoms: C_24  and  O_25
REMARK                            x       y       z     vdW  Elec       q    Type
REMARK                         _______ _______ _______ _____ _____    ______ ____
ROOT
ATOM      1  O   UNL     1      13.850  14.499  44.425  0.00  0.00    +0.000 OA
ENDROOT
BRANCH   1   2
ATOM      2  C   UNL     1      15.181  14.806  43.884  0.00  0.00    +0.000 C 
ATOM      3  C   UNL     1      16.268  14.586  44.966  0.00  0.00    +0.000 C 
ATOM      4  C   UNL     1      15.514  14.066  42.562  0.00  0.00    +0.000 C 
ATOM      5  C   UNL     1      17.675  14.944  44.433  0.00  0.00    +0.000 C 
ATOM      6  C   UNL     1      16.896  14.522  42.020  0.00  0.00    +0.000 C 
ATOM      7  C   UNL     1      17.982  14.228  43.094  0.00  0.00    +0.000 C 
BRANCH   6   8
ATOM      8  C   UNL     1      16.872  15.994  41.604  0.00  0.00    +0.000 C 
ATOM      9  O   UNL     1      17.914  16.498  41.231  0.00  0.00    +0.000 OA
ATOM     10  O   UNL     1      15.813  16.592  41.621  0.00  0.00    +0.000 OA
ENDBRANCH   6   8
BRANCH   6  11
ATOM     11  O   UNL     1      17.198  13.734  40.859  0.00  0.00    +0.000 OA
ATOM     12  H   UNL     1      17.636  14.314  40.215  0.00  0.00    +0.000 HD
ENDBRANCH   6  11
BRANCH   3  13
ATOM     13  O   UNL     1      16.268  13.232  45.452  0.00  0.00    +0.000 OA
ATOM     14  H   UNL     1      16.451  12.650  44.689  0.00  0.00    +0.000 HD
ENDBRANCH   3  13
BRANCH   5  15
ATOM     15  O   UNL     1      18.618  14.524  45.423  0.00  0.00    +0.000 OA
ATOM     16  H   UNL     1      18.078  14.432  46.233  0.00  0.00    +0.000 HD
ENDBRANCH   5  15
ENDBRANCH   1   2
BRANCH   1  18
ATOM     17  O   UNL     1      13.725  12.227  44.750  0.00  0.00    +0.000 OA
ATOM     18  C   UNL     1      13.255  13.283  44.372  0.00  0.00    +0.000 C 
BRANCH  18  19
ATOM     19  C   UNL     1      11.886  13.362  43.820  0.00  0.00    +0.000 C 
ATOM     20  C   UNL     1      10.726  13.552  44.470  0.00  0.00    +0.000 C 
BRANCH  20  21
ATOM     21  C   UNL     1       9.379  13.653  43.868  0.00  0.00    +0.000 A 
ATOM     22  C   UNL     1       8.740  12.522  43.349  0.00  0.00    +0.000 A 
ATOM     23  C   UNL     1       8.734  14.891  43.829  0.00  0.00    +0.000 A 
ATOM     24  C   UNL     1       7.459  12.634  42.801  0.00  0.00    +0.000 A 
ATOM     25  C   UNL     1       7.463  15.007  43.273  0.00  0.00    +0.000 A 
ATOM     26  C   UNL     1       6.828  13.878  42.767  0.00  0.00    +0.000 A 
BRANCH  26  27
ATOM     27  O   UNL     1       5.578  13.966  42.247  0.00  0.00    +0.000 OA
ATOM     28  H   UNL     1       5.704  14.361  41.362  0.00  0.00    +0.000 HD
ENDBRANCH  26  27
BRANCH  24  29
ATOM     29  O   UNL     1       6.797  11.545  42.293  0.00  0.00    +0.000 OA
ATOM     30  H   UNL     1       6.553  10.921  42.998  0.00  0.00    +0.000 HD
ENDBRANCH  24  29
ENDBRANCH  20  21
ENDBRANCH  18  19
ENDBRANCH   1  18
TORSDOF 10
ENDMDL
MODEL 17
REMARK VINA RESULT:    -5.525      2.467      8.266
REMARK INTER + INTRA:          -8.249
REMARK INTER:                  -7.776
REMARK INTRA:                  -0.473
REMARK UNBOUND:                -0.302
REMARK  Name = opt06.pdb
REMARK  10 active torsions:
REMARK  status: ('A' for Active; 'I' for Inactive)
REMARK    1  A    between atoms: C_2  and  O_3
REMARK    2  A    between atoms: C_2  and  C_4
REMARK    3  A    between atoms: O_3  and  C_5
REMARK    4  A    between atoms: C_6  and  C_9
REMARK    5  A    between atoms: C_7  and  O_10
REMARK    6  A    between atoms: C_11  and  O_15
REMARK    7  A    between atoms: C_12  and  O_17
REMARK    8  A    between atoms: C_12  and  C_18
REMARK    9  A    between atoms: C_19  and  O_23
REMARK   10  A    between atoms: C_24  and  O_25
REMARK                            x       y       z     vdW  Elec       q    Type
REMARK                         _______ _______ _______ _____ _____    ______ ____
ROOT
ATOM      1  O   UNL     1      13.973  12.990  42.891  0.00  0.00    +0.000 OA
ENDROOT
BRANCH   1   2
ATOM      2  C   UNL     1      14.758  14.124  43.398  0.00  0.00    +0.000 C 
ATOM      3  C   UNL     1      16.262  13.756  43.453  0.00  0.00    +0.000 C 
ATOM      4  C   UNL     1      14.508  15.456  42.643  0.00  0.00    +0.000 C 
ATOM      5  C   UNL     1      17.106  14.920  44.023  0.00  0.00    +0.000 C 
ATOM      6  C   UNL     1      15.307  16.611  43.305  0.00  0.00    +0.000 C 
ATOM      7  C   UNL     1      16.821  16.252  43.286  0.00  0.00    +0.000 C 
BRANCH   6   8
ATOM      8  C   UNL     1      14.796  16.903  44.717  0.00  0.00    +0.000 C 
ATOM      9  O   UNL     1      13.638  16.630  44.971  0.00  0.00    +0.000 OA
ATOM     10  O   UNL     1      15.568  17.353  45.540  0.00  0.00    +0.000 OA
ENDBRANCH   6   8
BRANCH   6  11
ATOM     11  O   UNL     1      15.122  17.790  42.508  0.00  0.00    +0.000 OA
ATOM     12  H   UNL     1      14.836  17.507  41.625  0.00  0.00    +0.000 HD
ENDBRANCH   6  11
BRANCH   3  13
ATOM     13  O   UNL     1      16.767  13.386  42.157  0.00  0.00    +0.000 OA
ATOM     14  H   UNL     1      16.713  12.413  42.091  0.00  0.00    +0.000 HD
ENDBRANCH   3  13
BRANCH   5  15
ATOM     15  O   UNL     1      18.480  14.566  43.850  0.00  0.00    +0.000 OA
ATOM     16  H   UNL     1      18.456  13.598  43.719  0.00  0.00    +0.000 HD
ENDBRANCH   5  15
ENDBRANCH   1   2
BRANCH   1  18
ATOM     17  O   UNL     1      13.835  11.293  44.433  0.00  0.00    +0.000 OA
ATOM     18  C   UNL     1      13.326  12.087  43.666  0.00  0.00    +0.000 C 
BRANCH  18  19
ATOM     19  C   UNL     1      11.859  12.183  43.519  0.00  0.00    +0.000 C 
ATOM     20  C   UNL     1      11.032  13.153  43.944  0.00  0.00    +0.000 C 
BRANCH  20  21
ATOM     21  C   UNL     1       9.568  13.220  43.747  0.00  0.00    +0.000 A 
ATOM     22  C   UNL     1       8.884  12.183  43.103  0.00  0.00    +0.000 A 
ATOM     23  C   UNL     1       8.860  14.326  44.222  0.00  0.00    +0.000 A 
ATOM     24  C   UNL     1       7.498  12.256  42.943  0.00  0.00    +0.000 A 
ATOM     25  C   UNL     1       7.480  14.405  44.053  0.00  0.00    +0.000 A 
ATOM     26  C   UNL     1       6.804  13.368  43.420  0.00  0.00    +0.000 A 
BRANCH  26  27
ATOM     27  O   UNL     1       5.456  13.415  43.271  0.00  0.00    +0.000 OA
ATOM     28  H   UNL     1       5.317  13.563  42.315  0.00  0.00    +0.000 HD
ENDBRANCH  26  27
BRANCH  24  29
ATOM     29  O   UNL     1       6.792  11.254  42.326  0.00  0.00    +0.000 OA
ATOM     30  H   UNL     1       7.267  10.406  42.378  0.00  0.00    +0.000 HD
ENDBRANCH  24  29
ENDBRANCH  20  21
ENDBRANCH  18  19
ENDBRANCH   1  18
TORSDOF 10
ENDMDL
MODEL 18
REMARK VINA RESULT:    -5.487      2.366      9.002
REMARK INTER + INTRA:          -8.195
REMARK INTER:                  -7.874
REMARK INTRA:                  -0.321
REMARK UNBOUND:                -0.302
REMARK  Name = opt06.pdb
REMARK  10 active torsions:
REMARK  status: ('A' for Active; 'I' for Inactive)
REMARK    1  A    between atoms: C_2  and  O_3
REMARK    2  A    between atoms: C_2  and  C_4
REMARK    3  A    between atoms: O_3  and  C_5
REMARK    4  A    between atoms: C_6  and  C_9
REMARK    5  A    between atoms: C_7  and  O_10
REMARK    6  A    between atoms: C_11  and  O_15
REMARK    7  A    between atoms: C_12  and  O_17
REMARK    8  A    between atoms: C_12  and  C_18
REMARK    9  A    between atoms: C_19  and  O_23
REMARK   10  A    between atoms: C_24  and  O_25
REMARK                            x       y       z     vdW  Elec       q    Type
REMARK                         _______ _______ _______ _____ _____    ______ ____
ROOT
ATOM      1  O   UNL     1      13.809  14.307  42.651  0.00  0.00    +0.000 OA
ENDROOT
BRANCH   1   2
ATOM      2  C   UNL     1      15.100  14.664  43.253  0.00  0.00    +0.000 C 
ATOM      3  C   UNL     1      15.248  14.001  44.646  0.00  0.00    +0.000 C 
ATOM      4  C   UNL     1      16.324  14.387  42.341  0.00  0.00    +0.000 C 
ATOM      5  C   UNL     1      16.583  14.395  45.320  0.00  0.00    +0.000 C 
ATOM      6  C   UNL     1      17.630  14.878  43.022  0.00  0.00    +0.000 C 
ATOM      7  C   UNL     1      17.794  14.148  44.386  0.00  0.00    +0.000 C 
BRANCH   6   8
ATOM      8  C   UNL     1      17.639  16.401  43.172  0.00  0.00    +0.000 C 
ATOM      9  O   UNL     1      18.284  16.879  44.085  0.00  0.00    +0.000 OA
ATOM     10  O   UNL     1      17.041  17.075  42.356  0.00  0.00    +0.000 OA
ENDBRANCH   6   8
BRANCH   6  11
ATOM     11  O   UNL     1      18.733  14.504  42.184  0.00  0.00    +0.000 OA
ATOM     12  H   UNL     1      18.648  14.993  41.350  0.00  0.00    +0.000 HD
ENDBRANCH   6  11
BRANCH   3  13
ATOM     13  O   UNL     1      15.155  12.567  44.565  0.00  0.00    +0.000 OA
ATOM     14  H   UNL     1      16.067  12.221  44.499  0.00  0.00    +0.000 HD
ENDBRANCH   3  13
BRANCH   5  15
ATOM     15  O   UNL     1      16.715  13.588  46.493  0.00  0.00    +0.000 OA
ATOM     16  H   UNL     1      15.950  13.850  47.042  0.00  0.00    +0.000 HD
ENDBRANCH   5  15
ENDBRANCH   1   2
BRANCH   1  18
ATOM     17  O   UNL     1      12.695  16.300  42.388  0.00  0.00    +0.000 OA
ATOM     18  C   UNL     1      12.717  15.109  42.628  0.00  0.00    +0.000 C 
BRANCH  18  19
ATOM     19  C   UNL     1      11.474  14.356  42.899  0.00  0.00    +0.000 C 
ATOM     20  C   UNL     1      10.229  14.600  42.458  0.00  0.00    +0.000 C 
BRANCH  20  21
ATOM     21  C   UNL     1       9.017  13.799  42.733  0.00  0.00    +0.000 A 
ATOM     22  C   UNL     1       8.387  13.080  41.712  0.00  0.00    +0.000 A 
ATOM     23  C   UNL     1       8.503  13.752  44.031  0.00  0.00    +0.000 A 
ATOM     24  C   UNL     1       7.253  12.313  41.995  0.00  0.00    +0.000 A 
ATOM     25  C   UNL     1       7.368  12.999  44.313  0.00  0.00    +0.000 A 
ATOM     26  C   UNL     1       6.751  12.278  43.297  0.00  0.00    +0.000 A 
BRANCH  26  27
ATOM     27  O   UNL     1       5.659  11.515  43.558  0.00  0.00    +0.000 OA
ATOM     28  H   UNL     1       5.930  10.605  43.325  0.00  0.00    +0.000 HD
ENDBRANCH  26  27
BRANCH  24  29
ATOM     29  O   UNL     1       6.616  11.586  41.023  0.00  0.00    +0.000 OA
ATOM     30  H   UNL     1       6.110  10.850  41.408  0.00  0.00    +0.000 HD
ENDBRANCH  24  29
ENDBRANCH  20  21
ENDBRANCH  18  19
ENDBRANCH   1  18
TORSDOF 10
ENDMDL
MODEL 19
REMARK VINA RESULT:    -5.296      2.066      3.259
REMARK INTER + INTRA:          -7.920
REMARK INTER:                  -7.569
REMARK INTRA:                  -0.352
REMARK UNBOUND:                -0.302
REMARK  Name = opt06.pdb
REMARK  10 active torsions:
REMARK  status: ('A' for Active; 'I' for Inactive)
REMARK    1  A    between atoms: C_2  and  O_3
REMARK    2  A    between atoms: C_2  and  C_4
REMARK    3  A    between atoms: O_3  and  C_5
REMARK    4  A    between atoms: C_6  and  C_9
REMARK    5  A    between atoms: C_7  and  O_10
REMARK    6  A    between atoms: C_11  and  O_15
REMARK    7  A    between atoms: C_12  and  O_17
REMARK    8  A    between atoms: C_12  and  C_18
REMARK    9  A    between atoms: C_19  and  O_23
REMARK   10  A    between atoms: C_24  and  O_25
REMARK                            x       y       z     vdW  Elec       q    Type
REMARK                         _______ _______ _______ _____ _____    ______ ____
ROOT
ATOM      1  O   UNL     1       9.329  16.250  43.623  0.00  0.00    +0.000 OA
ENDROOT
BRANCH   1   2
ATOM      2  C   UNL     1       8.589  15.060  43.184  0.00  0.00    +0.000 C 
ATOM      3  C   UNL     1       9.536  13.836  43.102  0.00  0.00    +0.000 C 
ATOM      4  C   UNL     1       7.317  14.760  44.020  0.00  0.00    +0.000 C 
ATOM      5  C   UNL     1       8.789  12.577  42.602  0.00  0.00    +0.000 C 
ATOM      6  C   UNL     1       6.555  13.544  43.429  0.00  0.00    +0.000 C 
ATOM      7  C   UNL     1       7.501  12.310  43.421  0.00  0.00    +0.000 C 
BRANCH   6   8
ATOM      8  C   UNL     1       5.998  13.860  42.039  0.00  0.00    +0.000 C 
ATOM      9  O   UNL     1       5.681  15.009  41.800  0.00  0.00    +0.000 OA
ATOM     10  O   UNL     1       5.933  12.968  41.216  0.00  0.00    +0.000 OA
ENDBRANCH   6   8
BRANCH   6  11
ATOM     11  O   UNL     1       5.451  13.249  44.297  0.00  0.00    +0.000 OA
ATOM     12  H   UNL     1       4.636  13.334  43.776  0.00  0.00    +0.000 HD
ENDBRANCH   6  11
BRANCH   3  13
ATOM     13  O   UNL     1      10.154  13.555  44.370  0.00  0.00    +0.000 OA
ATOM     14  H   UNL     1       9.481  13.121  44.931  0.00  0.00    +0.000 HD
ENDBRANCH   3  13
BRANCH   5  15
ATOM     15  O   UNL     1       9.684  11.472  42.748  0.00  0.00    +0.000 OA
ATOM     16  H   UNL     1      10.302  11.573  41.998  0.00  0.00    +0.000 HD
ENDBRANCH   5  15
ENDBRANCH   1   2
BRANCH   1  18
ATOM     17  O   UNL     1      10.042  17.807  42.090  0.00  0.00    +0.000 OA
ATOM     18  C   UNL     1      10.252  16.907  42.879  0.00  0.00    +0.000 C 
BRANCH  18  19
ATOM     19  C   UNL     1      11.624  16.431  43.156  0.00  0.00    +0.000 C 
ATOM     20  C   UNL     1      12.251  16.313  44.339  0.00  0.00    +0.000 C 
BRANCH  20  21
ATOM     21  C   UNL     1      13.619  15.803  44.569  0.00  0.00    +0.000 A 
ATOM     22  C   UNL     1      13.878  14.428  44.582  0.00  0.00    +0.000 A 
ATOM     23  C   UNL     1      14.666  16.706  44.767  0.00  0.00    +0.000 A 
ATOM     24  C   UNL     1      15.182  13.965  44.783  0.00  0.00    +0.000 A 
ATOM     25  C   UNL     1      15.963  16.247  44.979  0.00  0.00    +0.000 A 
ATOM     26  C   UNL     1      16.216  14.880  44.981  0.00  0.00    +0.000 A 
BRANCH  26  27
ATOM     27  O   UNL     1      17.479  14.414  45.159  0.00  0.00    +0.000 OA
ATOM     28  H   UNL     1      17.584  13.717  44.482  0.00  0.00    +0.000 HD
ENDBRANCH  26  27
BRANCH  24  29
ATOM     29  O   UNL     1      15.475  12.626  44.791  0.00  0.00    +0.000 OA
ATOM     30  H   UNL     1      15.113  12.190  45.581  0.00  0.00    +0.000 HD
ENDBRANCH  24  29
ENDBRANCH  20  21
ENDBRANCH  18  19
ENDBRANCH   1  18
TORSDOF 10
ENDMDL
MODEL 20
REMARK VINA RESULT:    -5.256      2.398      8.082
REMARK INTER + INTRA:          -7.862
REMARK INTER:                  -7.305
REMARK INTRA:                  -0.557
REMARK UNBOUND:                -0.302
REMARK  Name = opt06.pdb
REMARK  10 active torsions:
REMARK  status: ('A' for Active; 'I' for Inactive)
REMARK    1  A    between atoms: C_2  and  O_3
REMARK    2  A    between atoms: C_2  and  C_4
REMARK    3  A    between atoms: O_3  and  C_5
REMARK    4  A    between atoms: C_6  and  C_9
REMARK    5  A    between atoms: C_7  and  O_10
REMARK    6  A    between atoms: C_11  and  O_15
REMARK    7  A    between atoms: C_12  and  O_17
REMARK    8  A    between atoms: C_12  and  C_18
REMARK    9  A    between atoms: C_19  and  O_23
REMARK   10  A    between atoms: C_24  and  O_25
REMARK                            x       y       z     vdW  Elec       q    Type
REMARK                         _______ _______ _______ _____ _____    ______ ____
ROOT
ATOM      1  O   UNL     1      12.739  17.059  43.686  0.00  0.00    +0.000 OA
ENDROOT
BRANCH   1   2
ATOM      2  C   UNL     1      13.482  15.797  43.574  0.00  0.00    +0.000 C 
ATOM      3  C   UNL     1      15.003  16.073  43.472  0.00  0.00    +0.000 C 
ATOM      4  C   UNL     1      13.148  14.765  44.683  0.00  0.00    +0.000 C 
ATOM      5  C   UNL     1      15.805  14.760  43.311  0.00  0.00    +0.000 C 
ATOM      6  C   UNL     1      13.908  13.435  44.431  0.00  0.00    +0.000 C 
ATOM      7  C   UNL     1      15.436  13.724  44.402  0.00  0.00    +0.000 C 
BRANCH   6   8
ATOM      8  C   UNL     1      13.421  12.750  43.153  0.00  0.00    +0.000 C 
ATOM      9  O   UNL     1      12.222  12.613  43.002  0.00  0.00    +0.000 OA
ATOM     10  O   UNL     1      14.239  12.409  42.321  0.00  0.00    +0.000 OA
ENDBRANCH   6   8
BRANCH   6  11
ATOM     11  O   UNL     1      13.645  12.558  45.537  0.00  0.00    +0.000 OA
ATOM     12  H   UNL     1      13.496  11.669  45.178  0.00  0.00    +0.000 HD
ENDBRANCH   6  11
BRANCH   3  13
ATOM     13  O   UNL     1      15.490  16.797  44.616  0.00  0.00    +0.000 OA
ATOM     14  H   UNL     1      16.359  17.173  44.373  0.00  0.00    +0.000 HD
ENDBRANCH   3  13
BRANCH   5  15
ATOM     15  O   UNL     1      17.190  15.098  43.425  0.00  0.00    +0.000 OA
ATOM     16  H   UNL     1      17.631  14.233  43.538  0.00  0.00    +0.000 HD
ENDBRANCH   5  15
ENDBRANCH   1   2
BRANCH   1  18
ATOM     17  O   UNL     1      11.323  18.465  42.545  0.00  0.00    +0.000 OA
ATOM     18  C   UNL     1      11.628  17.370  42.976  0.00  0.00    +0.000 C 
BRANCH  18  19
ATOM     19  C   UNL     1      10.786  16.181  42.721  0.00  0.00    +0.000 C 
ATOM     20  C   UNL     1       9.726  15.736  43.416  0.00  0.00    +0.000 C 
BRANCH  20  21
ATOM     21  C   UNL     1       8.895  14.554  43.105  0.00  0.00    +0.000 A 
ATOM     22  C   UNL     1       8.072  14.534  41.973  0.00  0.00    +0.000 A 
ATOM     23  C   UNL     1       8.942  13.439  43.946  0.00  0.00    +0.000 A 
ATOM     24  C   UNL     1       7.308  13.400  41.686  0.00  0.00    +0.000 A 
ATOM     25  C   UNL     1       8.173  12.313  43.667  0.00  0.00    +0.000 A 
ATOM     26  C   UNL     1       7.364  12.296  42.536  0.00  0.00    +0.000 A 
BRANCH  26  27
ATOM     27  O   UNL     1       6.627  11.196  42.233  0.00  0.00    +0.000 OA
ATOM     28  H   UNL     1       7.269  10.459  42.234  0.00  0.00    +0.000 HD
ENDBRANCH  26  27
BRANCH  24  29
ATOM     29  O   UNL     1       6.499  13.341  40.580  0.00  0.00    +0.000 OA
ATOM     30  H   UNL     1       7.022  13.335  39.761  0.00  0.00    +0.000 HD
ENDBRANCH  24  29
ENDBRANCH  20  21
ENDBRANCH  18  19
ENDBRANCH   1  18
TORSDOF 10
ENDMDL
