MODEL 1
REMARK VINA RESULT:    -4.647      0.000      0.000
REMARK INTER + INTRA:          -4.647
REMARK INTER:                  -4.647
REMARK INTRA:                   0.000
REMARK UNBOUND:                 0.000
REMARK  Name = opt07.pdb
REMARK  3 active torsions:
REMARK  status: ('A' for Active; 'I' for Inactive)
REMARK    1  A    between atoms: N_3  and  C_6
REMARK    2  A    between atoms: N_4  and  C_8
REMARK    3  A    between atoms: N_12  and  C_14
REMARK                            x       y       z     vdW  Elec       q    Type
REMARK                         _______ _______ _______ _____ _____    ______ ____
ROOT
ATOM      1  O   UNL     1      15.910  13.329  44.806  0.00  0.00    +0.000 OA
ATOM      2  C   UNL     1      14.765  13.696  44.618  0.00  0.00    +0.000 A 
ATOM      3  N   UNL     1      14.414  15.018  44.638  0.00  0.00    +0.000 N 
ATOM      4  N   UNL     1      13.770  12.794  44.375  0.00  0.00    +0.000 N 
ATOM      5  C   UNL     1      13.156  15.510  44.436  0.00  0.00    +0.000 A 
ATOM      6  C   UNL     1      15.469  16.031  44.895  0.00  0.00    +0.000 C 
ATOM      7  C   UNL     1      12.448  13.148  44.158  0.00  0.00    +0.000 A 
ATOM      8  C   UNL     1      14.044  11.346  44.324  0.00  0.00    +0.000 C 
ATOM      9  O   UNL     1      12.915  16.704  44.466  0.00  0.00    +0.000 OA
ATOM     10  C   UNL     1      12.130  14.481  44.183  0.00  0.00    +0.000 A 
ATOM     11  N   UNL     1      11.367  12.981  43.949  0.00  0.00    +0.000 NA
ATOM     12  N   UNL     1      10.793  14.418  43.930  0.00  0.00    +0.000 N 
ATOM     13  C   UNL     1      10.286  13.157  43.759  0.00  0.00    +0.000 A 
ATOM     14  C   UNL     1       9.936  15.606  43.832  0.00  0.00    +0.000 C 
ENDROOT
TORSDOF 0
ENDMDL
MODEL 2
REMARK VINA RESULT:    -4.558      1.956      3.278
REMARK INTER + INTRA:          -4.558
REMARK INTER:                  -4.558
REMARK INTRA:                   0.000
REMARK UNBOUND:                 0.000
REMARK  Name = opt07.pdb
REMARK  3 active torsions:
REMARK  status: ('A' for Active; 'I' for Inactive)
REMARK    1  A    between atoms: N_3  and  C_6
REMARK    2  A    between atoms: N_4  and  C_8
REMARK    3  A    between atoms: N_12  and  C_14
REMARK                            x       y       z     vdW  Elec       q    Type
REMARK                         _______ _______ _______ _____ _____    ______ ____
ROOT
ATOM      1  O   UNL     1      13.583  11.316  44.196  0.00  0.00    +0.000 OA
ATOM      2  C   UNL     1      12.956  12.355  44.115  0.00  0.00    +0.000 A 
ATOM      3  N   UNL     1      11.756  12.430  43.461  0.00  0.00    +0.000 N 
ATOM      4  N   UNL     1      13.427  13.505  44.679  0.00  0.00    +0.000 N 
ATOM      5  C   UNL     1      10.993  13.554  43.326  0.00  0.00    +0.000 A 
ATOM      6  C   UNL     1      11.208  11.198  42.837  0.00  0.00    +0.000 C 
ATOM      7  C   UNL     1      12.762  14.720  44.617  0.00  0.00    +0.000 A 
ATOM      8  C   UNL     1      14.706  13.531  45.413  0.00  0.00    +0.000 C 
ATOM      9  O   UNL     1       9.929  13.546  42.731  0.00  0.00    +0.000 OA
ATOM     10  C   UNL     1      11.562  14.759  43.956  0.00  0.00    +0.000 A 
ATOM     11  N   UNL     1      12.598  15.805  44.805  0.00  0.00    +0.000 NA
ATOM     12  N   UNL     1      11.238  16.072  44.117  0.00  0.00    +0.000 N 
ATOM     13  C   UNL     1      12.147  16.821  44.817  0.00  0.00    +0.000 A 
ATOM     14  C   UNL     1      10.000  16.665  43.595  0.00  0.00    +0.000 C 
ENDROOT
TORSDOF 0
ENDMDL
MODEL 3
REMARK VINA RESULT:    -4.553      1.529      2.959
REMARK INTER + INTRA:          -4.553
REMARK INTER:                  -4.553
REMARK INTRA:                   0.000
REMARK UNBOUND:                 0.000
REMARK  Name = opt07.pdb
REMARK  3 active torsions:
REMARK  status: ('A' for Active; 'I' for Inactive)
REMARK    1  A    between atoms: N_3  and  C_6
REMARK    2  A    between atoms: N_4  and  C_8
REMARK    3  A    between atoms: N_12  and  C_14
REMARK                            x       y       z     vdW  Elec       q    Type
REMARK                         _______ _______ _______ _____ _____    ______ ____
ROOT
ATOM      1  O   UNL     1      16.132  13.236  44.850  0.00  0.00    +0.000 OA
ATOM      2  C   UNL     1      14.992  13.624  44.676  0.00  0.00    +0.000 A 
ATOM      3  N   UNL     1      13.965  12.761  44.405  0.00  0.00    +0.000 N 
ATOM      4  N   UNL     1      14.684  14.951  44.746  0.00  0.00    +0.000 N 
ATOM      5  C   UNL     1      12.663  13.115  44.199  0.00  0.00    +0.000 A 
ATOM      6  C   UNL     1      14.259  11.308  44.325  0.00  0.00    +0.000 C 
ATOM      7  C   UNL     1      13.407  15.456  44.553  0.00  0.00    +0.000 A 
ATOM      8  C   UNL     1      15.716  15.963  45.040  0.00  0.00    +0.000 C 
ATOM      9  O   UNL     1      11.797  12.290  43.964  0.00  0.00    +0.000 OA
ATOM     10  C   UNL     1      12.402  14.564  44.284  0.00  0.00    +0.000 A 
ATOM     11  N   UNL     1      12.619  16.238  44.480  0.00  0.00    +0.000 NA
ATOM     12  N   UNL     1      11.344  15.415  44.172  0.00  0.00    +0.000 N 
ATOM     13  C   UNL     1      11.636  16.742  44.347  0.00  0.00    +0.000 A 
ATOM     14  C   UNL     1       9.975  14.965  43.892  0.00  0.00    +0.000 C 
ENDROOT
TORSDOF 0
ENDMDL
MODEL 4
REMARK VINA RESULT:    -4.503      1.748      3.130
REMARK INTER + INTRA:          -4.503
REMARK INTER:                  -4.503
REMARK INTRA:                   0.000
REMARK UNBOUND:                 0.000
REMARK  Name = opt07.pdb
REMARK  3 active torsions:
REMARK  status: ('A' for Active; 'I' for Inactive)
REMARK    1  A    between atoms: N_3  and  C_6
REMARK    2  A    between atoms: N_4  and  C_8
REMARK    3  A    between atoms: N_12  and  C_14
REMARK                            x       y       z     vdW  Elec       q    Type
REMARK                         _______ _______ _______ _____ _____    ______ ____
ROOT
ATOM      1  O   UNL     1      14.645  14.981  44.611  0.00  0.00    +0.000 OA
ATOM      2  C   UNL     1      13.554  14.505  44.363  0.00  0.00    +0.000 A 
ATOM      3  N   UNL     1      13.391  13.178  44.069  0.00  0.00    +0.000 N 
ATOM      4  N   UNL     1      12.431  15.280  44.367  0.00  0.00    +0.000 N 
ATOM      5  C   UNL     1      12.204  12.567  43.780  0.00  0.00    +0.000 A 
ATOM      6  C   UNL     1      14.588  12.299  44.058  0.00  0.00    +0.000 C 
ATOM      7  C   UNL     1      11.162  14.798  44.088  0.00  0.00    +0.000 A 
ATOM      8  C   UNL     1      12.496  16.720  44.679  0.00  0.00    +0.000 C 
ATOM      9  O   UNL     1      12.134  11.377  43.530  0.00  0.00    +0.000 OA
ATOM     10  C   UNL     1      11.035  13.464  43.799  0.00  0.00    +0.000 A 
ATOM     11  N   UNL     1      10.060  14.849  43.944  0.00  0.00    +0.000 NA
ATOM     12  N   UNL     1       9.689  13.386  43.598  0.00  0.00    +0.000 N 
ATOM     13  C   UNL     1       9.004  14.564  43.740  0.00  0.00    +0.000 A 
ATOM     14  C   UNL     1       8.997  12.136  43.262  0.00  0.00    +0.000 C 
ENDROOT
TORSDOF 0
ENDMDL
MODEL 5
REMARK VINA RESULT:    -4.449      1.690      3.478
REMARK INTER + INTRA:          -4.449
REMARK INTER:                  -4.449
REMARK INTRA:                   0.000
REMARK UNBOUND:                 0.000
REMARK  Name = opt07.pdb
REMARK  3 active torsions:
REMARK  status: ('A' for Active; 'I' for Inactive)
REMARK    1  A    between atoms: N_3  and  C_6
REMARK    2  A    between atoms: N_4  and  C_8
REMARK    3  A    between atoms: N_12  and  C_14
REMARK                            x       y       z     vdW  Elec       q    Type
REMARK                         _______ _______ _______ _____ _____    ______ ____
ROOT
ATOM      1  O   UNL     1      12.210  11.331  43.693  0.00  0.00    +0.000 OA
ATOM      2  C   UNL     1      12.367  12.522  43.885  0.00  0.00    +0.000 A 
ATOM      3  N   UNL     1      11.322  13.405  43.859  0.00  0.00    +0.000 N 
ATOM      4  N   UNL     1      13.606  13.035  44.137  0.00  0.00    +0.000 N 
ATOM      5  C   UNL     1      11.414  14.752  44.064  0.00  0.00    +0.000 A 
ATOM      6  C   UNL     1       9.957  12.885  43.592  0.00  0.00    +0.000 C 
ATOM      7  C   UNL     1      13.850  14.381  44.358  0.00  0.00    +0.000 A 
ATOM      8  C   UNL     1      14.797  12.168  44.195  0.00  0.00    +0.000 C 
ATOM      9  O   UNL     1      10.438  15.480  44.029  0.00  0.00    +0.000 OA
ATOM     10  C   UNL     1      12.781  15.238  44.327  0.00  0.00    +0.000 A 
ATOM     11  N   UNL     1      14.462  15.286  44.573  0.00  0.00    +0.000 NA
ATOM     12  N   UNL     1      13.408  16.420  44.586  0.00  0.00    +0.000 N 
ATOM     13  C   UNL     1      14.764  16.339  44.766  0.00  0.00    +0.000 A 
ATOM     14  C   UNL     1      12.700  17.702  44.681  0.00  0.00    +0.000 C 
ENDROOT
TORSDOF 0
ENDMDL
MODEL 6
REMARK VINA RESULT:    -4.436      1.705      3.462
REMARK INTER + INTRA:          -4.436
REMARK INTER:                  -4.436
REMARK INTRA:                   0.000
REMARK UNBOUND:                 0.000
REMARK  Name = opt07.pdb
REMARK  3 active torsions:
REMARK  status: ('A' for Active; 'I' for Inactive)
REMARK    1  A    between atoms: N_3  and  C_6
REMARK    2  A    between atoms: N_4  and  C_8
REMARK    3  A    between atoms: N_12  and  C_14
REMARK                            x       y       z     vdW  Elec       q    Type
REMARK                         _______ _______ _______ _____ _____    ______ ____
ROOT
ATOM      1  O   UNL     1      11.829  11.504  43.481  0.00  0.00    +0.000 OA
ATOM      2  C   UNL     1      12.230  12.611  43.790  0.00  0.00    +0.000 A 
ATOM      3  N   UNL     1      13.523  12.831  44.181  0.00  0.00    +0.000 N 
ATOM      4  N   UNL     1      11.400  13.693  43.758  0.00  0.00    +0.000 N 
ATOM      5  C   UNL     1      14.050  14.038  44.541  0.00  0.00    +0.000 A 
ATOM      6  C   UNL     1      14.460  11.679  44.224  0.00  0.00    +0.000 C 
ATOM      7  C   UNL     1      11.795  14.976  44.102  0.00  0.00    +0.000 A 
ATOM      8  C   UNL     1       9.990  13.565  43.343  0.00  0.00    +0.000 C 
ATOM      9  O   UNL     1      15.215  14.161  44.877  0.00  0.00    +0.000 OA
ATOM     10  C   UNL     1      13.097  15.162  44.488  0.00  0.00    +0.000 A 
ATOM     11  N   UNL     1      11.677  16.070  44.270  0.00  0.00    +0.000 NA
ATOM     12  N   UNL     1      13.091  16.503  44.727  0.00  0.00    +0.000 N 
ATOM     13  C   UNL     1      11.892  17.133  44.519  0.00  0.00    +0.000 A 
ATOM     14  C   UNL     1      14.278  17.247  45.168  0.00  0.00    +0.000 C 
ENDROOT
TORSDOF 0
ENDMDL
MODEL 7
REMARK VINA RESULT:    -4.411      1.471      3.666
REMARK INTER + INTRA:          -4.411
REMARK INTER:                  -4.411
REMARK INTRA:                   0.000
REMARK UNBOUND:                 0.000
REMARK  Name = opt07.pdb
REMARK  3 active torsions:
REMARK  status: ('A' for Active; 'I' for Inactive)
REMARK    1  A    between atoms: N_3  and  C_6
REMARK    2  A    between atoms: N_4  and  C_8
REMARK    3  A    between atoms: N_12  and  C_14
REMARK                            x       y       z     vdW  Elec       q    Type
REMARK                         _______ _______ _______ _____ _____    ______ ____
ROOT
ATOM      1  O   UNL     1      10.110  16.241  43.684  0.00  0.00    +0.000 OA
ATOM      2  C   UNL     1      11.138  15.645  43.946  0.00  0.00    +0.000 A 
ATOM      3  N   UNL     1      12.291  16.299  44.285  0.00  0.00    +0.000 N 
ATOM      4  N   UNL     1      11.185  14.281  43.915  0.00  0.00    +0.000 N 
ATOM      5  C   UNL     1      13.481  15.705  44.593  0.00  0.00    +0.000 A 
ATOM      6  C   UNL     1      12.279  17.783  44.334  0.00  0.00    +0.000 C 
ATOM      7  C   UNL     1      12.325  13.545  44.199  0.00  0.00    +0.000 A 
ATOM      8  C   UNL     1       9.996  13.481  43.570  0.00  0.00    +0.000 C 
ATOM      9  O   UNL     1      14.470  16.353  44.889  0.00  0.00    +0.000 OA
ATOM     10  C   UNL     1      13.462  14.232  44.535  0.00  0.00    +0.000 A 
ATOM     11  N   UNL     1      12.940  12.627  44.335  0.00  0.00    +0.000 NA
ATOM     12  N   UNL     1      14.322  13.195  44.739  0.00  0.00    +0.000 N 
ATOM     13  C   UNL     1      13.793  11.946  44.548  0.00  0.00    +0.000 A 
ATOM     14  C   UNL     1      15.721  13.377  45.145  0.00  0.00    +0.000 C 
ENDROOT
TORSDOF 0
ENDMDL
MODEL 8
REMARK VINA RESULT:    -4.399      1.654      4.681
REMARK INTER + INTRA:          -4.399
REMARK INTER:                  -4.399
REMARK INTRA:                   0.000
REMARK UNBOUND:                 0.000
REMARK  Name = opt07.pdb
REMARK  3 active torsions:
REMARK  status: ('A' for Active; 'I' for Inactive)
REMARK    1  A    between atoms: N_3  and  C_6
REMARK    2  A    between atoms: N_4  and  C_8
REMARK    3  A    between atoms: N_12  and  C_14
REMARK                            x       y       z     vdW  Elec       q    Type
REMARK                         _______ _______ _______ _____ _____    ______ ____
ROOT
ATOM      1  O   UNL     1      11.094  13.500  44.034  0.00  0.00    +0.000 OA
ATOM      2  C   UNL     1      12.275  13.757  44.169  0.00  0.00    +0.000 A 
ATOM      3  N   UNL     1      13.242  12.791  44.100  0.00  0.00    +0.000 N 
ATOM      4  N   UNL     1      12.693  15.036  44.397  0.00  0.00    +0.000 N 
ATOM      5  C   UNL     1      14.584  12.998  44.241  0.00  0.00    +0.000 A 
ATOM      6  C   UNL     1      12.828  11.387  43.849  0.00  0.00    +0.000 C 
ATOM      7  C   UNL     1      14.021  15.393  44.565  0.00  0.00    +0.000 A 
ATOM      8  C   UNL     1      11.733  16.153  44.481  0.00  0.00    +0.000 C 
ATOM      9  O   UNL     1      15.391  12.088  44.165  0.00  0.00    +0.000 OA
ATOM     10  C   UNL     1      14.964  14.401  44.489  0.00  0.00    +0.000 A 
ATOM     11  N   UNL     1      14.880  16.079  44.742  0.00  0.00    +0.000 NA
ATOM     12  N   UNL     1      16.099  15.127  44.691  0.00  0.00    +0.000 N 
ATOM     13  C   UNL     1      15.912  16.470  44.885  0.00  0.00    +0.000 A 
ATOM     14  C   UNL     1      17.443  14.535  44.694  0.00  0.00    +0.000 C 
ENDROOT
TORSDOF 0
ENDMDL
MODEL 9
REMARK VINA RESULT:    -4.319      1.822      3.030
REMARK INTER + INTRA:          -4.319
REMARK INTER:                  -4.319
REMARK INTRA:                   0.000
REMARK UNBOUND:                 0.000
REMARK  Name = opt07.pdb
REMARK  3 active torsions:
REMARK  status: ('A' for Active; 'I' for Inactive)
REMARK    1  A    between atoms: N_3  and  C_6
REMARK    2  A    between atoms: N_4  and  C_8
REMARK    3  A    between atoms: N_12  and  C_14
REMARK                            x       y       z     vdW  Elec       q    Type
REMARK                         _______ _______ _______ _____ _____    ______ ____
ROOT
ATOM      1  O   UNL     1      12.095  11.302  43.463  0.00  0.00    +0.000 OA
ATOM      2  C   UNL     1      12.076  12.499  43.679  0.00  0.00    +0.000 A 
ATOM      3  N   UNL     1      13.156  13.160  44.198  0.00  0.00    +0.000 N 
ATOM      4  N   UNL     1      10.965  13.243  43.408  0.00  0.00    +0.000 N 
ATOM      5  C   UNL     1      13.215  14.497  44.468  0.00  0.00    +0.000 A 
ATOM      6  C   UNL     1      14.386  12.386  44.501  0.00  0.00    +0.000 C 
ATOM      7  C   UNL     1      10.880  14.608  43.636  0.00  0.00    +0.000 A 
ATOM      8  C   UNL     1       9.751  12.630  42.840  0.00  0.00    +0.000 C 
ATOM      9  O   UNL     1      14.215  15.021  44.928  0.00  0.00    +0.000 OA
ATOM     10  C   UNL     1      11.980  15.239  44.156  0.00  0.00    +0.000 A 
ATOM     11  N   UNL     1      10.401  15.613  43.650  0.00  0.00    +0.000 NA
ATOM     12  N   UNL     1      11.518  16.519  44.223  0.00  0.00    +0.000 N 
ATOM     13  C   UNL     1      10.231  16.703  43.790  0.00  0.00    +0.000 A 
ATOM     14  C   UNL     1      12.326  17.642  44.712  0.00  0.00    +0.000 C 
ENDROOT
TORSDOF 0
ENDMDL
MODEL 10
REMARK VINA RESULT:    -4.305      2.074      2.450
REMARK INTER + INTRA:          -4.305
REMARK INTER:                  -4.305
REMARK INTRA:                   0.000
REMARK UNBOUND:                 0.000
REMARK  Name = opt07.pdb
REMARK  3 active torsions:
REMARK  status: ('A' for Active; 'I' for Inactive)
REMARK    1  A    between atoms: N_3  and  C_6
REMARK    2  A    between atoms: N_4  and  C_8
REMARK    3  A    between atoms: N_12  and  C_14
REMARK                            x       y       z     vdW  Elec       q    Type
REMARK                         _______ _______ _______ _____ _____    ______ ____
ROOT
ATOM      1  O   UNL     1      13.416  11.327  44.488  0.00  0.00    +0.000 OA
ATOM      2  C   UNL     1      13.100  12.367  43.942  0.00  0.00    +0.000 A 
ATOM      3  N   UNL     1      13.758  13.543  44.182  0.00  0.00    +0.000 N 
ATOM      4  N   UNL     1      12.065  12.407  43.054  0.00  0.00    +0.000 N 
ATOM      5  C   UNL     1      13.466  14.749  43.611  0.00  0.00    +0.000 A 
ATOM      6  C   UNL     1      14.893  13.541  45.139  0.00  0.00    +0.000 C 
ATOM      7  C   UNL     1      11.653  13.559  42.403  0.00  0.00    +0.000 A 
ATOM      8  C   UNL     1      11.296  11.194  42.718  0.00  0.00    +0.000 C 
ATOM      9  O   UNL     1      14.098  15.758  43.870  0.00  0.00    +0.000 OA
ATOM     10  C   UNL     1      12.334  14.719  42.665  0.00  0.00    +0.000 A 
ATOM     11  N   UNL     1      11.034  14.178  41.715  0.00  0.00    +0.000 NA
ATOM     12  N   UNL     1      11.660  15.586  41.859  0.00  0.00    +0.000 N 
ATOM     13  C   UNL     1      10.629  15.040  41.140  0.00  0.00    +0.000 A 
ATOM     14  C   UNL     1      12.000  17.010  41.745  0.00  0.00    +0.000 C 
ENDROOT
TORSDOF 0
ENDMDL
MODEL 11
REMARK VINA RESULT:    -4.303      1.772      3.712
REMARK INTER + INTRA:          -4.303
REMARK INTER:                  -4.303
REMARK INTRA:                   0.000
REMARK UNBOUND:                 0.000
REMARK  Name = opt07.pdb
REMARK  3 active torsions:
REMARK  status: ('A' for Active; 'I' for Inactive)
REMARK    1  A    between atoms: N_3  and  C_6
REMARK    2  A    between atoms: N_4  and  C_8
REMARK    3  A    between atoms: N_12  and  C_14
REMARK                            x       y       z     vdW  Elec       q    Type
REMARK                         _______ _______ _______ _____ _____    ______ ____
ROOT
ATOM      1  O   UNL     1      12.657  12.365  44.408  0.00  0.00    +0.000 OA
ATOM      2  C   UNL     1      12.871  13.560  44.484  0.00  0.00    +0.000 A 
ATOM      3  N   UNL     1      11.861  14.483  44.446  0.00  0.00    +0.000 N 
ATOM      4  N   UNL     1      14.142  14.038  44.616  0.00  0.00    +0.000 N 
ATOM      5  C   UNL     1      12.018  15.837  44.526  0.00  0.00    +0.000 A 
ATOM      6  C   UNL     1      10.463  14.002  44.308  0.00  0.00    +0.000 C 
ATOM      7  C   UNL     1      14.452  15.387  44.704  0.00  0.00    +0.000 A 
ATOM      8  C   UNL     1      15.301  13.128  44.676  0.00  0.00    +0.000 C 
ATOM      9  O   UNL     1      11.070  16.602  44.487  0.00  0.00    +0.000 OA
ATOM     10  C   UNL     1      13.416  16.284  44.662  0.00  0.00    +0.000 A 
ATOM     11  N   UNL     1      15.110  16.279  44.801  0.00  0.00    +0.000 NA
ATOM     12  N   UNL     1      14.103  17.455  44.780  0.00  0.00    +0.000 N 
ATOM     13  C   UNL     1      15.464  17.330  44.883  0.00  0.00    +0.000 A 
ATOM     14  C   UNL     1      13.453  18.770  44.805  0.00  0.00    +0.000 C 
ENDROOT
TORSDOF 0
ENDMDL
MODEL 12
REMARK VINA RESULT:    -4.287      1.772      3.228
REMARK INTER + INTRA:          -4.287
REMARK INTER:                  -4.287
REMARK INTRA:                   0.000
REMARK UNBOUND:                 0.000
REMARK  Name = opt07.pdb
REMARK  3 active torsions:
REMARK  status: ('A' for Active; 'I' for Inactive)
REMARK    1  A    between atoms: N_3  and  C_6
REMARK    2  A    between atoms: N_4  and  C_8
REMARK    3  A    between atoms: N_12  and  C_14
REMARK                            x       y       z     vdW  Elec       q    Type
REMARK                         _______ _______ _______ _____ _____    ______ ____
ROOT
ATOM      1  O   UNL     1      14.323  15.969  44.465  0.00  0.00    +0.000 OA
ATOM      2  C   UNL     1      13.683  14.998  44.109  0.00  0.00    +0.000 A 
ATOM      3  N   UNL     1      14.002  13.730  44.514  0.00  0.00    +0.000 N 
ATOM      4  N   UNL     1      12.606  15.132  43.282  0.00  0.00    +0.000 N 
ATOM      5  C   UNL     1      13.336  12.592  44.160  0.00  0.00    +0.000 A 
ATOM      6  C   UNL     1      15.165  13.543  45.418  0.00  0.00    +0.000 C 
ATOM      7  C   UNL     1      11.840  14.066  42.837  0.00  0.00    +0.000 A 
ATOM      8  C   UNL     1      12.173  16.455  42.795  0.00  0.00    +0.000 C 
ATOM      9  O   UNL     1      13.675  11.492  44.562  0.00  0.00    +0.000 OA
ATOM     10  C   UNL     1      12.186  12.809  43.262  0.00  0.00    +0.000 A 
ATOM     11  N   UNL     1      11.019  13.560  42.282  0.00  0.00    +0.000 NA
ATOM     12  N   UNL     1      11.228  12.068  42.639  0.00  0.00    +0.000 N 
ATOM     13  C   UNL     1      10.341  12.778  41.873  0.00  0.00    +0.000 A 
ATOM     14  C   UNL     1      11.126  10.610  42.771  0.00  0.00    +0.000 C 
ENDROOT
TORSDOF 0
ENDMDL
MODEL 13
REMARK VINA RESULT:    -4.273      1.893      4.065
REMARK INTER + INTRA:          -4.273
REMARK INTER:                  -4.273
REMARK INTRA:                   0.000
REMARK UNBOUND:                 0.000
REMARK  Name = opt07.pdb
REMARK  3 active torsions:
REMARK  status: ('A' for Active; 'I' for Inactive)
REMARK    1  A    between atoms: N_3  and  C_6
REMARK    2  A    between atoms: N_4  and  C_8
REMARK    3  A    between atoms: N_12  and  C_14
REMARK                            x       y       z     vdW  Elec       q    Type
REMARK                         _______ _______ _______ _____ _____    ______ ____
ROOT
ATOM      1  O   UNL     1      11.842  13.222  44.530  0.00  0.00    +0.000 OA
ATOM      2  C   UNL     1      12.897  13.828  44.541  0.00  0.00    +0.000 A 
ATOM      3  N   UNL     1      12.949  15.194  44.599  0.00  0.00    +0.000 N 
ATOM      4  N   UNL     1      14.088  13.164  44.499  0.00  0.00    +0.000 N 
ATOM      5  C   UNL     1      14.088  15.947  44.616  0.00  0.00    +0.000 A 
ATOM      6  C   UNL     1      11.673  15.953  44.651  0.00  0.00    +0.000 C 
ATOM      7  C   UNL     1      15.322  13.796  44.505  0.00  0.00    +0.000 A 
ATOM      8  C   UNL     1      14.144  11.691  44.444  0.00  0.00    +0.000 C 
ATOM      9  O   UNL     1      14.059  17.164  44.671  0.00  0.00    +0.000 OA
ATOM     10  C   UNL     1      15.338  15.166  44.564  0.00  0.00    +0.000 A 
ATOM     11  N   UNL     1      16.432  13.868  44.491  0.00  0.00    +0.000 NA
ATOM     12  N   UNL     1      16.681  15.395  44.558  0.00  0.00    +0.000 N 
ATOM     13  C   UNL     1      17.468  14.275  44.496  0.00  0.00    +0.000 A 
ATOM     14  C   UNL     1      17.268  16.738  44.622  0.00  0.00    +0.000 C 
ENDROOT
TORSDOF 0
ENDMDL
MODEL 14
REMARK VINA RESULT:    -4.244      1.427      3.119
REMARK INTER + INTRA:          -4.244
REMARK INTER:                  -4.244
REMARK INTRA:                   0.000
REMARK UNBOUND:                 0.000
REMARK  Name = opt07.pdb
REMARK  3 active torsions:
REMARK  status: ('A' for Active; 'I' for Inactive)
REMARK    1  A    between atoms: N_3  and  C_6
REMARK    2  A    between atoms: N_4  and  C_8
REMARK    3  A    between atoms: N_12  and  C_14
REMARK                            x       y       z     vdW  Elec       q    Type
REMARK                         _______ _______ _______ _____ _____    ______ ____
ROOT
ATOM      1  O   UNL     1      15.550  16.904  44.910  0.00  0.00    +0.000 OA
ATOM      2  C   UNL     1      14.894  15.913  44.653  0.00  0.00    +0.000 A 
ATOM      3  N   UNL     1      15.479  14.726  44.302  0.00  0.00    +0.000 N 
ATOM      4  N   UNL     1      13.531  15.940  44.704  0.00  0.00    +0.000 N 
ATOM      5  C   UNL     1      14.815  13.572  44.000  0.00  0.00    +0.000 A 
ATOM      6  C   UNL     1      16.961  14.654  44.239  0.00  0.00    +0.000 C 
ATOM      7  C   UNL     1      12.728  14.847  44.418  0.00  0.00    +0.000 A 
ATOM      8  C   UNL     1      12.802  17.167  45.079  0.00  0.00    +0.000 C 
ATOM      9  O   UNL     1      15.403  12.548  43.698  0.00  0.00    +0.000 OA
ATOM     10  C   UNL     1      13.346  13.674  44.071  0.00  0.00    +0.000 A 
ATOM     11  N   UNL     1      11.776  14.286  44.289  0.00  0.00    +0.000 NA
ATOM     12  N   UNL     1      12.260  12.873  43.883  0.00  0.00    +0.000 N 
ATOM     13  C   UNL     1      11.045  13.473  44.084  0.00  0.00    +0.000 A 
ATOM     14  C   UNL     1      12.360  11.459  43.499  0.00  0.00    +0.000 C 
ENDROOT
TORSDOF 0
ENDMDL
MODEL 15
REMARK VINA RESULT:    -4.092      1.761      2.457
REMARK INTER + INTRA:          -4.092
REMARK INTER:                  -4.092
REMARK INTRA:                   0.000
REMARK UNBOUND:                 0.000
REMARK  Name = opt07.pdb
REMARK  3 active torsions:
REMARK  status: ('A' for Active; 'I' for Inactive)
REMARK    1  A    between atoms: N_3  and  C_6
REMARK    2  A    between atoms: N_4  and  C_8
REMARK    3  A    between atoms: N_12  and  C_14
REMARK                            x       y       z     vdW  Elec       q    Type
REMARK                         _______ _______ _______ _____ _____    ______ ____
ROOT
ATOM      1  O   UNL     1      15.500  12.234  43.739  0.00  0.00    +0.000 OA
ATOM      2  C   UNL     1      14.995  13.300  44.035  0.00  0.00    +0.000 A 
ATOM      3  N   UNL     1      15.745  14.374  44.432  0.00  0.00    +0.000 N 
ATOM      4  N   UNL     1      13.643  13.475  43.982  0.00  0.00    +0.000 N 
ATOM      5  C   UNL     1      15.257  15.600  44.779  0.00  0.00    +0.000 A 
ATOM      6  C   UNL     1      17.221  14.225  44.499  0.00  0.00    +0.000 C 
ATOM      7  C   UNL     1      13.007  14.662  44.311  0.00  0.00    +0.000 A 
ATOM      8  C   UNL     1      12.745  12.384  43.559  0.00  0.00    +0.000 C 
ATOM      9  O   UNL     1      15.986  16.514  45.122  0.00  0.00    +0.000 OA
ATOM     10  C   UNL     1      13.789  15.718  44.703  0.00  0.00    +0.000 A 
ATOM     11  N   UNL     1      12.147  15.352  44.462  0.00  0.00    +0.000 NA
ATOM     12  N   UNL     1      12.831  16.661  44.923  0.00  0.00    +0.000 N 
ATOM     13  C   UNL     1      11.542  16.255  44.697  0.00  0.00    +0.000 A 
ATOM     14  C   UNL     1      13.135  18.029  45.362  0.00  0.00    +0.000 C 
ENDROOT
TORSDOF 0
ENDMDL
MODEL 16
REMARK VINA RESULT:    -4.092      1.569      2.208
REMARK INTER + INTRA:          -4.092
REMARK INTER:                  -4.092
REMARK INTRA:                   0.000
REMARK UNBOUND:                 0.000
REMARK  Name = opt07.pdb
REMARK  3 active torsions:
REMARK  status: ('A' for Active; 'I' for Inactive)
REMARK    1  A    between atoms: N_3  and  C_6
REMARK    2  A    between atoms: N_4  and  C_8
REMARK    3  A    between atoms: N_12  and  C_14
REMARK                            x       y       z     vdW  Elec       q    Type
REMARK                         _______ _______ _______ _____ _____    ______ ____
ROOT
ATOM      1  O   UNL     1      15.382  16.240  44.897  0.00  0.00    +0.000 OA
ATOM      2  C   UNL     1      14.458  15.510  44.590  0.00  0.00    +0.000 A 
ATOM      3  N   UNL     1      13.166  15.958  44.538  0.00  0.00    +0.000 N 
ATOM      4  N   UNL     1      14.673  14.199  44.279  0.00  0.00    +0.000 N 
ATOM      5  C   UNL     1      12.077  15.205  44.204  0.00  0.00    +0.000 A 
ATOM      6  C   UNL     1      12.892  17.380  44.865  0.00  0.00    +0.000 C 
ATOM      7  C   UNL     1      13.663  13.317  43.928  0.00  0.00    +0.000 A 
ATOM      8  C   UNL     1      16.029  13.619  44.297  0.00  0.00    +0.000 C 
ATOM      9  O   UNL     1      10.952  15.672  44.176  0.00  0.00    +0.000 OA
ATOM     10  C   UNL     1      12.380  13.798  43.884  0.00  0.00    +0.000 A 
ATOM     11  N   UNL     1      13.219  12.344  43.622  0.00  0.00    +0.000 NA
ATOM     12  N   UNL     1      11.711  12.674  43.507  0.00  0.00    +0.000 N 
ATOM     13  C   UNL     1      12.487  11.559  43.325  0.00  0.00    +0.000 A 
ATOM     14  C   UNL     1      10.259  12.635  43.294  0.00  0.00    +0.000 C 
ENDROOT
TORSDOF 0
ENDMDL
MODEL 17
REMARK VINA RESULT:    -4.047      1.568      3.766
REMARK INTER + INTRA:          -4.047
REMARK INTER:                  -4.047
REMARK INTRA:                   0.000
REMARK UNBOUND:                 0.000
REMARK  Name = opt07.pdb
REMARK  3 active torsions:
REMARK  status: ('A' for Active; 'I' for Inactive)
REMARK    1  A    between atoms: N_3  and  C_6
REMARK    2  A    between atoms: N_4  and  C_8
REMARK    3  A    between atoms: N_12  and  C_14
REMARK                            x       y       z     vdW  Elec       q    Type
REMARK                         _______ _______ _______ _____ _____    ______ ____
ROOT
ATOM      1  O   UNL     1       9.624  16.441  43.476  0.00  0.00    +0.000 OA
ATOM      2  C   UNL     1      10.545  15.666  43.654  0.00  0.00    +0.000 A 
ATOM      3  N   UNL     1      11.761  16.080  44.126  0.00  0.00    +0.000 N 
ATOM      4  N   UNL     1      10.402  14.335  43.392  0.00  0.00    +0.000 N 
ATOM      5  C   UNL     1      12.841  15.276  44.353  0.00  0.00    +0.000 A 
ATOM      6  C   UNL     1      11.954  17.521  44.428  0.00  0.00    +0.000 C 
ATOM      7  C   UNL     1      11.414  13.403  43.570  0.00  0.00    +0.000 A 
ATOM      8  C   UNL     1       9.130  13.784  42.889  0.00  0.00    +0.000 C 
ATOM      9  O   UNL     1      13.896  15.715  44.777  0.00  0.00    +0.000 OA
ATOM     10  C   UNL     1      12.619  13.852  44.044  0.00  0.00    +0.000 A 
ATOM     11  N   UNL     1      11.887  12.396  43.560  0.00  0.00    +0.000 NA
ATOM     12  N   UNL     1      13.315  12.681  44.085  0.00  0.00    +0.000 N 
ATOM     13  C   UNL     1      12.626  11.572  43.671  0.00  0.00    +0.000 A 
ATOM     14  C   UNL     1      14.706  12.588  44.547  0.00  0.00    +0.000 C 
ENDROOT
TORSDOF 0
ENDMDL
MODEL 18
REMARK VINA RESULT:    -4.046      2.101      4.909
REMARK INTER + INTRA:          -4.046
REMARK INTER:                  -4.046
REMARK INTRA:                   0.000
REMARK UNBOUND:                 0.000
REMARK  Name = opt07.pdb
REMARK  3 active torsions:
REMARK  status: ('A' for Active; 'I' for Inactive)
REMARK    1  A    between atoms: N_3  and  C_6
REMARK    2  A    between atoms: N_4  and  C_8
REMARK    3  A    between atoms: N_12  and  C_14
REMARK                            x       y       z     vdW  Elec       q    Type
REMARK                         _______ _______ _______ _____ _____    ______ ____
ROOT
ATOM      1  O   UNL     1       8.794  15.228  42.892  0.00  0.00    +0.000 OA
ATOM      2  C   UNL     1       9.886  14.819  43.238  0.00  0.00    +0.000 A 
ATOM      3  N   UNL     1      10.198  13.486  43.230  0.00  0.00    +0.000 N 
ATOM      4  N   UNL     1      10.860  15.681  43.651  0.00  0.00    +0.000 N 
ATOM      5  C   UNL     1      11.397  12.948  43.601  0.00  0.00    +0.000 A 
ATOM      6  C   UNL     1       9.166  12.516  42.783  0.00  0.00    +0.000 C 
ATOM      7  C   UNL     1      12.121  15.277  44.061  0.00  0.00    +0.000 A 
ATOM      8  C   UNL     1      10.629  17.137  43.688  0.00  0.00    +0.000 C 
ATOM      9  O   UNL     1      11.606  11.748  43.567  0.00  0.00    +0.000 OA
ATOM     10  C   UNL     1      12.400  13.935  44.040  0.00  0.00    +0.000 A 
ATOM     11  N   UNL     1      13.161  15.402  44.436  0.00  0.00    +0.000 NA
ATOM     12  N   UNL     1      13.687  13.947  44.488  0.00  0.00    +0.000 N 
ATOM     13  C   UNL     1      14.197  15.185  44.778  0.00  0.00    +0.000 A 
ATOM     14  C   UNL     1      14.495  12.732  44.648  0.00  0.00    +0.000 C 
ENDROOT
TORSDOF 0
ENDMDL
MODEL 19
REMARK VINA RESULT:    -4.008      1.802      3.816
REMARK INTER + INTRA:          -4.008
REMARK INTER:                  -4.008
REMARK INTRA:                   0.000
REMARK UNBOUND:                 0.000
REMARK  Name = opt07.pdb
REMARK  3 active torsions:
REMARK  status: ('A' for Active; 'I' for Inactive)
REMARK    1  A    between atoms: N_3  and  C_6
REMARK    2  A    between atoms: N_4  and  C_8
REMARK    3  A    between atoms: N_12  and  C_14
REMARK                            x       y       z     vdW  Elec       q    Type
REMARK                         _______ _______ _______ _____ _____    ______ ____
ROOT
ATOM      1  O   UNL     1      10.059  14.189  42.019  0.00  0.00    +0.000 OA
ATOM      2  C   UNL     1      11.122  13.974  42.570  0.00  0.00    +0.000 A 
ATOM      3  N   UNL     1      11.954  14.986  42.965  0.00  0.00    +0.000 N 
ATOM      4  N   UNL     1      11.535  12.698  42.823  0.00  0.00    +0.000 N 
ATOM      5  C   UNL     1      13.159  14.828  43.588  0.00  0.00    +0.000 A 
ATOM      6  C   UNL     1      11.538  16.389  42.711  0.00  0.00    +0.000 C 
ATOM      7  C   UNL     1      12.736  12.387  43.443  0.00  0.00    +0.000 A 
ATOM      8  C   UNL     1      10.710  11.536  42.446  0.00  0.00    +0.000 C 
ATOM      9  O   UNL     1      13.848  15.778  43.915  0.00  0.00    +0.000 OA
ATOM     10  C   UNL     1      13.545  13.425  43.826  0.00  0.00    +0.000 A 
ATOM     11  N   UNL     1      13.525  11.726  43.866  0.00  0.00    +0.000 NA
ATOM     12  N   UNL     1      14.580  12.735  44.381  0.00  0.00    +0.000 N 
ATOM     13  C   UNL     1      14.458  11.370  44.356  0.00  0.00    +0.000 A 
ATOM     14  C   UNL     1      15.753  13.386  44.978  0.00  0.00    +0.000 C 
ENDROOT
TORSDOF 0
ENDMDL
MODEL 20
REMARK VINA RESULT:    -3.867      1.878      2.998
REMARK INTER + INTRA:          -3.867
REMARK INTER:                  -3.867
REMARK INTRA:                   0.000
REMARK UNBOUND:                 0.000
REMARK  Name = opt07.pdb
REMARK  3 active torsions:
REMARK  status: ('A' for Active; 'I' for Inactive)
REMARK    1  A    between atoms: N_3  and  C_6
REMARK    2  A    between atoms: N_4  and  C_8
REMARK    3  A    between atoms: N_12  and  C_14
REMARK                            x       y       z     vdW  Elec       q    Type
REMARK                         _______ _______ _______ _____ _____    ______ ____
ROOT
ATOM      1  O   UNL     1      17.312  17.172  44.662  0.00  0.00    +0.000 OA
ATOM      2  C   UNL     1      16.283  16.524  44.680  0.00  0.00    +0.000 A 
ATOM      3  N   UNL     1      15.051  17.116  44.601  0.00  0.00    +0.000 N 
ATOM      4  N   UNL     1      16.311  15.164  44.781  0.00  0.00    +0.000 N 
ATOM      5  C   UNL     1      13.852  16.463  44.614  0.00  0.00    +0.000 A 
ATOM      6  C   UNL     1      14.979  18.595  44.486  0.00  0.00    +0.000 C 
ATOM      7  C   UNL     1      15.174  14.371  44.811  0.00  0.00    +0.000 A 
ATOM      8  C   UNL     1      17.586  14.428  44.864  0.00  0.00    +0.000 C 
ATOM      9  O   UNL     1      12.791  17.056  44.536  0.00  0.00    +0.000 OA
ATOM     10  C   UNL     1      13.957  14.996  44.728  0.00  0.00    +0.000 A 
ATOM     11  N   UNL     1      14.590  13.425  44.866  0.00  0.00    +0.000 NA
ATOM     12  N   UNL     1      13.125  13.919  44.782  0.00  0.00    +0.000 N 
ATOM     13  C   UNL     1      13.745  12.702  44.895  0.00  0.00    +0.000 A 
ATOM     14  C   UNL     1      11.662  14.027  44.717  0.00  0.00    +0.000 C 
ENDROOT
TORSDOF 0
ENDMDL
