MODEL 1
REMARK VINA RESULT:    -5.152      0.000      0.000
REMARK INTER + INTRA:         -13.647
REMARK INTER:                  -9.369
REMARK INTRA:                  -4.278
REMARK UNBOUND:                -4.278
REMARK  Name = opt73.pdb
REMARK  19 active torsions:
REMARK  status: ('A' for Active; 'I' for Inactive)
REMARK    1  A    between atoms: C_5  and  O_9
REMARK    2  A    between atoms: C_7  and  O_13
REMARK    3  A    between atoms: O_9  and  C_16
REMARK    4  A    between atoms: C_12  and  C_18
REMARK    5  A    between atoms: C_19  and  C_24
REMARK    6  A    between atoms: C_21  and  O_26
REMARK    7  A    between atoms: C_25  and  C_35
REMARK    8  A    between atoms: C_27  and  O_36
REMARK    9  A    between atoms: C_34  and  O_42
REMARK   10  A    between atoms: C_35  and  O_43
REMARK   11  A    between atoms: C_38  and  O_45
REMARK   12  A    between atoms: C_39  and  C_47
REMARK   13  A    between atoms: C_40  and  O_48
REMARK   14  A    between atoms: O_48  and  C_52
REMARK   15  A    between atoms: C_54  and  O_56
REMARK   16  A    between atoms: C_55  and  C_59
REMARK   17  A    between atoms: C_57  and  O_60
REMARK   18  A    between atoms: C_58  and  O_61
REMARK   19  A    between atoms: C_59  and  O_62
REMARK                            x       y       z     vdW  Elec       q    Type
REMARK                         _______ _______ _______ _____ _____    ______ ____
ROOT
ATOM      1  O   UNL     1       7.476  18.558  40.033  0.00  0.00    +0.000 OA
ATOM      2  C   UNL     1       8.316  17.765  40.428  0.00  0.00    +0.000 C 
ATOM      3  C   UNL     1       9.785  18.001  40.185  0.00  0.00    +0.000 A 
ATOM      4  C   UNL     1       7.911  16.449  41.048  0.00  0.00    +0.000 A 
ATOM      5  C   UNL     1      10.242  19.059  39.358  0.00  0.00    +0.000 A 
ATOM      6  C   UNL     1      10.717  17.090  40.729  0.00  0.00    +0.000 A 
ATOM      7  C   UNL     1       6.563  16.074  41.191  0.00  0.00    +0.000 A 
ATOM      8  C   UNL     1       8.904  15.561  41.489  0.00  0.00    +0.000 A 
ATOM      9  C   UNL     1      11.604  19.185  39.079  0.00  0.00    +0.000 A 
ATOM     10  C   UNL     1      12.064  17.205  40.350  0.00  0.00    +0.000 A 
ATOM     11  C   UNL     1      10.267  16.022  41.624  0.00  0.00    +0.000 C 
ATOM     12  C   UNL     1       6.226  14.851  41.765  0.00  0.00    +0.000 A 
ATOM     13  C   UNL     1       8.553  14.307  42.001  0.00  0.00    +0.000 A 
ATOM     14  C   UNL     1      12.506  18.251  39.556  0.00  0.00    +0.000 A 
ATOM     15  C   UNL     1       7.212  13.963  42.189  0.00  0.00    +0.000 A 
ENDROOT
BRANCH  11  16
ATOM     16  C   UNL     1      10.693  16.135  43.030  0.00  0.00    +0.000 C 
ATOM     17  C   UNL     1      11.555  15.058  43.479  0.00  0.00    +0.000 A 
ATOM     18  C   UNL     1      10.990  17.503  43.465  0.00  0.00    +0.000 A 
ATOM     19  C   UNL     1      12.873  15.335  43.865  0.00  0.00    +0.000 A 
ATOM     20  C   UNL     1      11.118  13.728  43.396  0.00  0.00    +0.000 A 
ATOM     21  C   UNL     1      12.322  17.877  43.694  0.00  0.00    +0.000 A 
ATOM     22  C   UNL     1       9.988  18.475  43.628  0.00  0.00    +0.000 A 
ATOM     23  C   UNL     1      13.343  16.767  43.844  0.00  0.00    +0.000 C 
ATOM     24  C   UNL     1      13.724  14.266  44.230  0.00  0.00    +0.000 A 
ATOM     25  C   UNL     1      12.007  12.670  43.609  0.00  0.00    +0.000 A 
ATOM     26  C   UNL     1      12.636  19.253  43.855  0.00  0.00    +0.000 A 
ATOM     27  C   UNL     1      10.299  19.816  43.796  0.00  0.00    +0.000 A 
ATOM     28  O   UNL     1      14.518  17.000  44.010  0.00  0.00    +0.000 OA
ATOM     29  C   UNL     1      13.292  12.953  44.065  0.00  0.00    +0.000 A 
ATOM     30  C   UNL     1      11.624  20.212  43.863  0.00  0.00    +0.000 A 
BRANCH  25  31
ATOM     31  C   UNL     1      11.620  11.252  43.290  0.00  0.00    +0.000 C 
ATOM     32  O   UNL     1      10.606  11.066  42.648  0.00  0.00    +0.000 OA
ATOM     33  O   UNL     1      12.375  10.359  43.623  0.00  0.00    +0.000 OA
ENDBRANCH  25  31
BRANCH  24  34
ATOM     34  O   UNL     1      14.983  14.431  44.763  0.00  0.00    +0.000 OA
ATOM     35  H   UNL     1      15.305  15.347  44.644  0.00  0.00    +0.000 HD
ENDBRANCH  24  34
BRANCH  26  36
ATOM     36  O   UNL     1      13.948  19.688  43.899  0.00  0.00    +0.000 OA
BRANCH  36  37
ATOM     37  C   UNL     1      14.554  20.905  43.340  0.00  0.00    +0.000 C 
ATOM     38  O   UNL     1      15.497  21.445  44.292  0.00  0.00    +0.000 OA
ATOM     39  C   UNL     1      15.408  20.489  42.114  0.00  0.00    +0.000 C 
ATOM     40  C   UNL     1      16.303  20.424  44.933  0.00  0.00    +0.000 C 
ATOM     41  C   UNL     1      16.246  19.275  42.533  0.00  0.00    +0.000 C 
ATOM     42  C   UNL     1      16.975  19.445  43.904  0.00  0.00    +0.000 C 
BRANCH  42  43
ATOM     43  O   UNL     1      16.971  18.127  44.466  0.00  0.00    +0.000 OA
ATOM     44  H   UNL     1      16.680  17.504  43.749  0.00  0.00    +0.000 HD
ENDBRANCH  42  43
BRANCH  41  45
ATOM     45  O   UNL     1      17.193  18.984  41.507  0.00  0.00    +0.000 OA
ATOM     46  H   UNL     1      17.982  19.479  41.755  0.00  0.00    +0.000 HD
ENDBRANCH  41  45
BRANCH  39  47
ATOM     47  O   UNL     1      16.312  21.510  41.641  0.00  0.00    +0.000 OA
ATOM     48  H   UNL     1      16.464  21.342  40.674  0.00  0.00    +0.000 HD
ENDBRANCH  39  47
BRANCH  40  49
ATOM     49  C   UNL     1      17.270  21.071  45.940  0.00  0.00    +0.000 C 
BRANCH  49  50
ATOM     50  O   UNL     1      18.272  20.111  46.332  0.00  0.00    +0.000 OA
ATOM     51  H   UNL     1      18.984  20.547  46.856  0.00  0.00    +0.000 HD
ENDBRANCH  49  50
ENDBRANCH  40  49
ENDBRANCH  36  37
ENDBRANCH  26  36
ENDBRANCH  11  16
BRANCH  15  52
ATOM     52  C   UNL     1       6.834  12.716  42.937  0.00  0.00    +0.000 C 
ATOM     53  O   UNL     1       6.222  12.833  43.981  0.00  0.00    +0.000 OA
ATOM     54  O   UNL     1       7.209  11.647  42.500  0.00  0.00    +0.000 OA
ENDBRANCH  15  52
BRANCH   7  55
ATOM     55  O   UNL     1       5.546  16.910  40.830  0.00  0.00    +0.000 OA
ATOM     56  H   UNL     1       4.732  16.366  40.824  0.00  0.00    +0.000 HD
ENDBRANCH   7  55
BRANCH   5  57
ATOM     57  O   UNL     1       9.363  19.965  38.761  0.00  0.00    +0.000 OA
BRANCH  57  58
ATOM     58  C   UNL     1       9.323  20.199  37.326  0.00  0.00    +0.000 C 
ATOM     59  O   UNL     1       9.281  18.950  36.590  0.00  0.00    +0.000 OA
ATOM     60  C   UNL     1       8.084  21.042  36.936  0.00  0.00    +0.000 C 
ATOM     61  C   UNL     1       8.116  18.106  36.823  0.00  0.00    +0.000 C 
ATOM     62  C   UNL     1       6.779  20.248  37.186  0.00  0.00    +0.000 C 
ATOM     63  C   UNL     1       6.820  18.881  36.461  0.00  0.00    +0.000 C 
BRANCH  60  64
ATOM     64  O   UNL     1       8.194  21.391  35.547  0.00  0.00    +0.000 OA
ATOM     65  H   UNL     1       7.499  22.050  35.347  0.00  0.00    +0.000 HD
ENDBRANCH  60  64
BRANCH  62  66
ATOM     66  O   UNL     1       5.637  21.006  36.746  0.00  0.00    +0.000 OA
ATOM     67  H   UNL     1       5.559  21.820  37.280  0.00  0.00    +0.000 HD
ENDBRANCH  62  66
BRANCH  63  68
ATOM     68  O   UNL     1       5.660  18.127  36.833  0.00  0.00    +0.000 OA
ATOM     69  H   UNL     1       5.652  18.023  37.807  0.00  0.00    +0.000 HD
ENDBRANCH  63  68
BRANCH  61  70
ATOM     70  C   UNL     1       8.288  16.832  35.964  0.00  0.00    +0.000 C 
BRANCH  70  71
ATOM     71  O   UNL     1       7.277  15.860  36.274  0.00  0.00    +0.000 OA
ATOM     72  H   UNL     1       6.917  16.064  37.160  0.00  0.00    +0.000 HD
ENDBRANCH  70  71
ENDBRANCH  61  70
ENDBRANCH  57  58
ENDBRANCH   5  57
TORSDOF 19
ENDMDL
MODEL 2
REMARK VINA RESULT:    -4.981      2.369      5.124
REMARK INTER + INTRA:         -13.335
REMARK INTER:                 -11.033
REMARK INTRA:                  -2.301
REMARK UNBOUND:                -4.278
REMARK  Name = opt73.pdb
REMARK  19 active torsions:
REMARK  status: ('A' for Active; 'I' for Inactive)
REMARK    1  A    between atoms: C_5  and  O_9
REMARK    2  A    between atoms: C_7  and  O_13
REMARK    3  A    between atoms: O_9  and  C_16
REMARK    4  A    between atoms: C_12  and  C_18
REMARK    5  A    between atoms: C_19  and  C_24
REMARK    6  A    between atoms: C_21  and  O_26
REMARK    7  A    between atoms: C_25  and  C_35
REMARK    8  A    between atoms: C_27  and  O_36
REMARK    9  A    between atoms: C_34  and  O_42
REMARK   10  A    between atoms: C_35  and  O_43
REMARK   11  A    between atoms: C_38  and  O_45
REMARK   12  A    between atoms: C_39  and  C_47
REMARK   13  A    between atoms: C_40  and  O_48
REMARK   14  A    between atoms: O_48  and  C_52
REMARK   15  A    between atoms: C_54  and  O_56
REMARK   16  A    between atoms: C_55  and  C_59
REMARK   17  A    between atoms: C_57  and  O_60
REMARK   18  A    between atoms: C_58  and  O_61
REMARK   19  A    between atoms: C_59  and  O_62
REMARK                            x       y       z     vdW  Elec       q    Type
REMARK                         _______ _______ _______ _____ _____    ______ ____
ROOT
ATOM      1  O   UNL     1      10.189  16.501  39.449  0.00  0.00    +0.000 OA
ATOM      2  C   UNL     1      10.464  16.779  40.605  0.00  0.00    +0.000 C 
ATOM      3  C   UNL     1       9.507  16.471  41.729  0.00  0.00    +0.000 A 
ATOM      4  C   UNL     1      11.707  17.568  40.940  0.00  0.00    +0.000 A 
ATOM      5  C   UNL     1       8.193  15.998  41.480  0.00  0.00    +0.000 A 
ATOM      6  C   UNL     1       9.909  16.745  43.055  0.00  0.00    +0.000 A 
ATOM      7  C   UNL     1      12.593  18.022  39.947  0.00  0.00    +0.000 A 
ATOM      8  C   UNL     1      11.991  17.869  42.280  0.00  0.00    +0.000 A 
ATOM      9  C   UNL     1       7.306  15.818  42.541  0.00  0.00    +0.000 A 
ATOM     10  C   UNL     1       8.955  16.632  44.079  0.00  0.00    +0.000 A 
ATOM     11  C   UNL     1      11.277  17.186  43.335  0.00  0.00    +0.000 C 
ATOM     12  C   UNL     1      13.729  18.750  40.292  0.00  0.00    +0.000 A 
ATOM     13  C   UNL     1      13.099  18.660  42.607  0.00  0.00    +0.000 A 
ATOM     14  C   UNL     1       7.678  16.154  43.831  0.00  0.00    +0.000 A 
ATOM     15  C   UNL     1      14.003  19.063  41.622  0.00  0.00    +0.000 A 
ENDROOT
BRANCH  11  16
ATOM     16  C   UNL     1      12.125  16.234  44.073  0.00  0.00    +0.000 C 
ATOM     17  C   UNL     1      12.140  14.894  43.517  0.00  0.00    +0.000 A 
ATOM     18  C   UNL     1      13.380  16.803  44.574  0.00  0.00    +0.000 A 
ATOM     19  C   UNL     1      13.332  14.366  43.005  0.00  0.00    +0.000 A 
ATOM     20  C   UNL     1      10.941  14.184  43.365  0.00  0.00    +0.000 A 
ATOM     21  C   UNL     1      14.590  16.435  43.969  0.00  0.00    +0.000 A 
ATOM     22  C   UNL     1      13.416  17.741  45.620  0.00  0.00    +0.000 A 
ATOM     23  C   UNL     1      14.585  15.201  43.090  0.00  0.00    +0.000 C 
ATOM     24  C   UNL     1      13.315  13.088  42.399  0.00  0.00    +0.000 A 
ATOM     25  C   UNL     1      10.903  12.995  42.632  0.00  0.00    +0.000 A 
ATOM     26  C   UNL     1      15.766  17.174  44.270  0.00  0.00    +0.000 A 
ATOM     27  C   UNL     1      14.569  18.452  45.917  0.00  0.00    +0.000 A 
ATOM     28  O   UNL     1      15.575  14.830  42.504  0.00  0.00    +0.000 OA
ATOM     29  C   UNL     1      12.102  12.439  42.191  0.00  0.00    +0.000 A 
ATOM     30  C   UNL     1      15.733  18.202  45.210  0.00  0.00    +0.000 A 
BRANCH  25  31
ATOM     31  C   UNL     1       9.597  12.351  42.258  0.00  0.00    +0.000 C 
ATOM     32  O   UNL     1       9.020  11.695  43.101  0.00  0.00    +0.000 OA
ATOM     33  O   UNL     1       9.137  12.577  41.155  0.00  0.00    +0.000 OA
ENDBRANCH  25  31
BRANCH  24  34
ATOM     34  O   UNL     1      14.445  12.413  41.996  0.00  0.00    +0.000 OA
ATOM     35  H   UNL     1      15.192  13.024  41.838  0.00  0.00    +0.000 HD
ENDBRANCH  24  34
BRANCH  26  36
ATOM     36  O   UNL     1      16.938  16.970  43.566  0.00  0.00    +0.000 OA
BRANCH  36  37
ATOM     37  C   UNL     1      18.248  17.621  43.713  0.00  0.00    +0.000 C 
ATOM     38  O   UNL     1      19.213  16.648  44.171  0.00  0.00    +0.000 OA
ATOM     39  C   UNL     1      18.732  18.036  42.299  0.00  0.00    +0.000 C 
ATOM     40  C   UNL     1      19.077  15.362  43.515  0.00  0.00    +0.000 C 
ATOM     41  C   UNL     1      18.514  16.836  41.371  0.00  0.00    +0.000 C 
ATOM     42  C   UNL     1      19.034  15.480  41.948  0.00  0.00    +0.000 C 
BRANCH  42  43
ATOM     43  O   UNL     1      18.105  14.510  41.449  0.00  0.00    +0.000 OA
ATOM     44  H   UNL     1      18.638  13.734  41.127  0.00  0.00    +0.000 HD
ENDBRANCH  42  43
BRANCH  41  45
ATOM     45  O   UNL     1      19.131  17.100  40.112  0.00  0.00    +0.000 OA
ATOM     46  H   UNL     1      18.805  17.970  39.858  0.00  0.00    +0.000 HD
ENDBRANCH  41  45
BRANCH  39  47
ATOM     47  O   UNL     1      20.126  18.405  42.228  0.00  0.00    +0.000 OA
ATOM     48  H   UNL     1      20.641  17.575  42.051  0.00  0.00    +0.000 HD
ENDBRANCH  39  47
BRANCH  40  49
ATOM     49  C   UNL     1      20.123  14.377  44.063  0.00  0.00    +0.000 C 
BRANCH  49  50
ATOM     50  O   UNL     1      20.388  14.676  45.449  0.00  0.00    +0.000 OA
ATOM     51  H   UNL     1      19.585  15.044  45.885  0.00  0.00    +0.000 HD
ENDBRANCH  49  50
ENDBRANCH  40  49
ENDBRANCH  36  37
ENDBRANCH  26  36
ENDBRANCH  11  16
BRANCH  15  52
ATOM     52  C   UNL     1      15.303  19.720  41.990  0.00  0.00    +0.000 C 
ATOM     53  O   UNL     1      15.325  20.448  42.963  0.00  0.00    +0.000 OA
ATOM     54  O   UNL     1      16.262  19.546  41.266  0.00  0.00    +0.000 OA
ENDBRANCH  15  52
BRANCH   7  55
ATOM     55  O   UNL     1      12.405  17.722  38.629  0.00  0.00    +0.000 OA
ATOM     56  H   UNL     1      13.067  17.035  38.406  0.00  0.00    +0.000 HD
ENDBRANCH   7  55
BRANCH   5  57
ATOM     57  O   UNL     1       7.728  15.749  40.187  0.00  0.00    +0.000 OA
BRANCH  57  58
ATOM     58  C   UNL     1       6.569  16.419  39.620  0.00  0.00    +0.000 C 
ATOM     59  O   UNL     1       6.406  17.749  40.175  0.00  0.00    +0.000 OA
ATOM     60  C   UNL     1       6.693  16.539  38.082  0.00  0.00    +0.000 C 
ATOM     61  C   UNL     1       7.490  18.688  39.919  0.00  0.00    +0.000 C 
ATOM     62  C   UNL     1       7.852  17.489  37.697  0.00  0.00    +0.000 C 
ATOM     63  C   UNL     1       7.689  18.863  38.389  0.00  0.00    +0.000 C 
BRANCH  60  64
ATOM     64  O   UNL     1       5.450  17.039  37.565  0.00  0.00    +0.000 OA
ATOM     65  H   UNL     1       5.652  17.789  36.970  0.00  0.00    +0.000 HD
ENDBRANCH  60  64
BRANCH  62  66
ATOM     66  O   UNL     1       7.911  17.660  36.269  0.00  0.00    +0.000 OA
ATOM     67  H   UNL     1       8.033  16.789  35.841  0.00  0.00    +0.000 HD
ENDBRANCH  62  66
BRANCH  63  68
ATOM     68  O   UNL     1       8.851  19.658  38.118  0.00  0.00    +0.000 OA
ATOM     69  H   UNL     1       9.224  19.967  38.969  0.00  0.00    +0.000 HD
ENDBRANCH  63  68
BRANCH  61  70
ATOM     70  C   UNL     1       7.122  20.021  40.612  0.00  0.00    +0.000 C 
BRANCH  70  71
ATOM     71  O   UNL     1       6.591  19.791  41.926  0.00  0.00    +0.000 OA
ATOM     72  H   UNL     1       7.330  19.828  42.565  0.00  0.00    +0.000 HD
ENDBRANCH  70  71
ENDBRANCH  61  70
ENDBRANCH  57  58
ENDBRANCH   5  57
TORSDOF 19
ENDMDL
MODEL 3
REMARK VINA RESULT:    -4.968      2.620      7.662
REMARK INTER + INTRA:         -13.312
REMARK INTER:                  -8.865
REMARK INTRA:                  -4.448
REMARK UNBOUND:                -4.278
REMARK  Name = opt73.pdb
REMARK  19 active torsions:
REMARK  status: ('A' for Active; 'I' for Inactive)
REMARK    1  A    between atoms: C_5  and  O_9
REMARK    2  A    between atoms: C_7  and  O_13
REMARK    3  A    between atoms: O_9  and  C_16
REMARK    4  A    between atoms: C_12  and  C_18
REMARK    5  A    between atoms: C_19  and  C_24
REMARK    6  A    between atoms: C_21  and  O_26
REMARK    7  A    between atoms: C_25  and  C_35
REMARK    8  A    between atoms: C_27  and  O_36
REMARK    9  A    between atoms: C_34  and  O_42
REMARK   10  A    between atoms: C_35  and  O_43
REMARK   11  A    between atoms: C_38  and  O_45
REMARK   12  A    between atoms: C_39  and  C_47
REMARK   13  A    between atoms: C_40  and  O_48
REMARK   14  A    between atoms: O_48  and  C_52
REMARK   15  A    between atoms: C_54  and  O_56
REMARK   16  A    between atoms: C_55  and  C_59
REMARK   17  A    between atoms: C_57  and  O_60
REMARK   18  A    between atoms: C_58  and  O_61
REMARK   19  A    between atoms: C_59  and  O_62
REMARK                            x       y       z     vdW  Elec       q    Type
REMARK                         _______ _______ _______ _____ _____    ______ ____
ROOT
ATOM      1  O   UNL     1      10.077  21.013  40.332  0.00  0.00    +0.000 OA
ATOM      2  C   UNL     1      11.106  20.479  40.713  0.00  0.00    +0.000 C 
ATOM      3  C   UNL     1      11.327  20.161  42.170  0.00  0.00    +0.000 A 
ATOM      4  C   UNL     1      12.257  20.246  39.762  0.00  0.00    +0.000 A 
ATOM      5  C   UNL     1      10.430  20.607  43.173  0.00  0.00    +0.000 A 
ATOM      6  C   UNL     1      12.505  19.476  42.543  0.00  0.00    +0.000 A 
ATOM      7  C   UNL     1      12.201  20.636  38.412  0.00  0.00    +0.000 A 
ATOM      8  C   UNL     1      13.426  19.631  40.235  0.00  0.00    +0.000 A 
ATOM      9  C   UNL     1      10.720  20.376  44.518  0.00  0.00    +0.000 A 
ATOM     10  C   UNL     1      12.796  19.344  43.909  0.00  0.00    +0.000 A 
ATOM     11  C   UNL     1      13.416  18.965  41.518  0.00  0.00    +0.000 C 
ATOM     12  C   UNL     1      13.282  20.408  37.565  0.00  0.00    +0.000 A 
ATOM     13  C   UNL     1      14.531  19.470  39.390  0.00  0.00    +0.000 A 
ATOM     14  C   UNL     1      11.907  19.767  44.885  0.00  0.00    +0.000 A 
ATOM     15  C   UNL     1      14.450  19.811  38.038  0.00  0.00    +0.000 A 
ENDROOT
BRANCH  11  16
ATOM     16  C   UNL     1      13.500  17.499  41.398  0.00  0.00    +0.000 C 
ATOM     17  C   UNL     1      14.421  16.877  42.330  0.00  0.00    +0.000 A 
ATOM     18  C   UNL     1      12.219  16.839  41.128  0.00  0.00    +0.000 A 
ATOM     19  C   UNL     1      13.937  15.996  43.306  0.00  0.00    +0.000 A 
ATOM     20  C   UNL     1      15.769  17.262  42.346  0.00  0.00    +0.000 A 
ATOM     21  C   UNL     1      11.607  16.087  42.141  0.00  0.00    +0.000 A 
ATOM     22  C   UNL     1      11.554  16.962  39.896  0.00  0.00    +0.000 A 
ATOM     23  C   UNL     1      12.462  15.684  43.326  0.00  0.00    +0.000 C 
ATOM     24  C   UNL     1      14.836  15.455  44.254  0.00  0.00    +0.000 A 
ATOM     25  C   UNL     1      16.618  16.845  43.376  0.00  0.00    +0.000 A 
ATOM     26  C   UNL     1      10.258  15.672  41.975  0.00  0.00    +0.000 A 
ATOM     27  C   UNL     1      10.241  16.546  39.735  0.00  0.00    +0.000 A 
ATOM     28  O   UNL     1      12.008  15.063  44.258  0.00  0.00    +0.000 OA
ATOM     29  C   UNL     1      16.150  15.911  44.297  0.00  0.00    +0.000 A 
ATOM     30  C   UNL     1       9.577  15.942  40.790  0.00  0.00    +0.000 A 
BRANCH  25  31
ATOM     31  C   UNL     1      17.991  17.437  43.540  0.00  0.00    +0.000 C 
ATOM     32  O   UNL     1      18.951  16.721  43.337  0.00  0.00    +0.000 OA
ATOM     33  O   UNL     1      18.082  18.622  43.795  0.00  0.00    +0.000 OA
ENDBRANCH  25  31
BRANCH  24  34
ATOM     34  O   UNL     1      14.501  14.473  45.159  0.00  0.00    +0.000 OA
ATOM     35  H   UNL     1      15.103  13.705  45.094  0.00  0.00    +0.000 HD
ENDBRANCH  24  34
BRANCH  26  36
ATOM     36  O   UNL     1       9.555  15.091  43.014  0.00  0.00    +0.000 OA
BRANCH  36  37
ATOM     37  C   UNL     1       9.659  13.737  43.578  0.00  0.00    +0.000 C 
ATOM     38  O   UNL     1       8.745  13.616  44.691  0.00  0.00    +0.000 OA
ATOM     39  C   UNL     1       9.134  12.739  42.513  0.00  0.00    +0.000 C 
ATOM     40  C   UNL     1       7.458  14.234  44.439  0.00  0.00    +0.000 C 
ATOM     41  C   UNL     1       7.815  13.302  41.971  0.00  0.00    +0.000 C 
ATOM     42  C   UNL     1       6.819  13.774  43.079  0.00  0.00    +0.000 C 
BRANCH  42  43
ATOM     43  O   UNL     1       6.152  14.897  42.491  0.00  0.00    +0.000 OA
ATOM     44  H   UNL     1       5.477  14.537  41.856  0.00  0.00    +0.000 HD
ENDBRANCH  42  43
BRANCH  41  45
ATOM     45  O   UNL     1       7.194  12.322  41.141  0.00  0.00    +0.000 OA
ATOM     46  H   UNL     1       7.674  11.507  41.324  0.00  0.00    +0.000 HD
ENDBRANCH  41  45
BRANCH  39  47
ATOM     47  O   UNL     1       8.877  11.410  43.014  0.00  0.00    +0.000 OA
ATOM     48  H   UNL     1       9.409  11.302  43.846  0.00  0.00    +0.000 HD
ENDBRANCH  39  47
BRANCH  40  49
ATOM     49  C   UNL     1       6.548  14.079  45.669  0.00  0.00    +0.000 C 
BRANCH  49  50
ATOM     50  O   UNL     1       5.958  15.353  45.997  0.00  0.00    +0.000 OA
ATOM     51  H   UNL     1       5.755  15.404  46.960  0.00  0.00    +0.000 HD
ENDBRANCH  49  50
ENDBRANCH  40  49
ENDBRANCH  36  37
ENDBRANCH  26  36
ENDBRANCH  11  16
BRANCH  15  52
ATOM     52  C   UNL     1      15.548  19.440  37.082  0.00  0.00    +0.000 C 
ATOM     53  O   UNL     1      16.192  18.434  37.308  0.00  0.00    +0.000 OA
ATOM     54  O   UNL     1      15.787  20.192  36.160  0.00  0.00    +0.000 OA
ENDBRANCH  15  52
BRANCH   7  55
ATOM     55  O   UNL     1      11.077  21.193  37.875  0.00  0.00    +0.000 OA
ATOM     56  H   UNL     1      10.337  20.943  38.466  0.00  0.00    +0.000 HD
ENDBRANCH   7  55
BRANCH   5  57
ATOM     57  O   UNL     1       9.272  21.325  42.866  0.00  0.00    +0.000 OA
BRANCH  57  58
ATOM     58  C   UNL     1       8.008  21.120  43.555  0.00  0.00    +0.000 C 
ATOM     59  O   UNL     1       6.885  21.506  42.721  0.00  0.00    +0.000 OA
ATOM     60  C   UNL     1       7.832  19.637  43.963  0.00  0.00    +0.000 C 
ATOM     61  C   UNL     1       6.715  20.753  41.485  0.00  0.00    +0.000 C 
ATOM     62  C   UNL     1       7.684  18.738  42.712  0.00  0.00    +0.000 C 
ATOM     63  C   UNL     1       6.538  19.244  41.804  0.00  0.00    +0.000 C 
BRANCH  60  64
ATOM     64  O   UNL     1       6.663  19.531  44.790  0.00  0.00    +0.000 OA
ATOM     65  H   UNL     1       6.627  20.324  45.363  0.00  0.00    +0.000 HD
ENDBRANCH  60  64
BRANCH  62  66
ATOM     66  O   UNL     1       7.440  17.373  43.100  0.00  0.00    +0.000 OA
ATOM     67  H   UNL     1       8.155  17.069  43.693  0.00  0.00    +0.000 HD
ENDBRANCH  62  66
BRANCH  63  68
ATOM     68  O   UNL     1       6.530  18.470  40.597  0.00  0.00    +0.000 OA
ATOM     69  H   UNL     1       7.266  17.826  40.633  0.00  0.00    +0.000 HD
ENDBRANCH  63  68
BRANCH  61  70
ATOM     70  C   UNL     1       5.487  21.338  40.751  0.00  0.00    +0.000 C 
BRANCH  70  71
ATOM     71  O   UNL     1       5.476  20.948  39.369  0.00  0.00    +0.000 OA
ATOM     72  H   UNL     1       5.634  19.984  39.321  0.00  0.00    +0.000 HD
ENDBRANCH  70  71
ENDBRANCH  61  70
ENDBRANCH  57  58
ENDBRANCH   5  57
TORSDOF 19
ENDMDL
MODEL 4
REMARK VINA RESULT:    -4.787      2.328      7.710
REMARK INTER + INTRA:         -12.982
REMARK INTER:                  -9.691
REMARK INTRA:                  -3.291
REMARK UNBOUND:                -4.278
REMARK  Name = opt73.pdb
REMARK  19 active torsions:
REMARK  status: ('A' for Active; 'I' for Inactive)
REMARK    1  A    between atoms: C_5  and  O_9
REMARK    2  A    between atoms: C_7  and  O_13
REMARK    3  A    between atoms: O_9  and  C_16
REMARK    4  A    between atoms: C_12  and  C_18
REMARK    5  A    between atoms: C_19  and  C_24
REMARK    6  A    between atoms: C_21  and  O_26
REMARK    7  A    between atoms: C_25  and  C_35
REMARK    8  A    between atoms: C_27  and  O_36
REMARK    9  A    between atoms: C_34  and  O_42
REMARK   10  A    between atoms: C_35  and  O_43
REMARK   11  A    between atoms: C_38  and  O_45
REMARK   12  A    between atoms: C_39  and  C_47
REMARK   13  A    between atoms: C_40  and  O_48
REMARK   14  A    between atoms: O_48  and  C_52
REMARK   15  A    between atoms: C_54  and  O_56
REMARK   16  A    between atoms: C_55  and  C_59
REMARK   17  A    between atoms: C_57  and  O_60
REMARK   18  A    between atoms: C_58  and  O_61
REMARK   19  A    between atoms: C_59  and  O_62
REMARK                            x       y       z     vdW  Elec       q    Type
REMARK                         _______ _______ _______ _____ _____    ______ ____
ROOT
ATOM      1  O   UNL     1      12.032  20.729  40.246  0.00  0.00    +0.000 OA
ATOM      2  C   UNL     1      12.463  19.898  41.030  0.00  0.00    +0.000 C 
ATOM      3  C   UNL     1      11.599  19.349  42.138  0.00  0.00    +0.000 A 
ATOM      4  C   UNL     1      13.918  19.492  41.010  0.00  0.00    +0.000 A 
ATOM      5  C   UNL     1      10.315  19.885  42.415  0.00  0.00    +0.000 A 
ATOM      6  C   UNL     1      12.125  18.336  42.969  0.00  0.00    +0.000 A 
ATOM      7  C   UNL     1      14.836  20.052  40.104  0.00  0.00    +0.000 A 
ATOM      8  C   UNL     1      14.378  18.535  41.926  0.00  0.00    +0.000 A 
ATOM      9  C   UNL     1       9.588  19.416  43.509  0.00  0.00    +0.000 A 
ATOM     10  C   UNL     1      11.395  17.958  44.106  0.00  0.00    +0.000 A 
ATOM     11  C   UNL     1      13.427  17.737  42.667  0.00  0.00    +0.000 C 
ATOM     12  C   UNL     1      16.171  19.656  40.116  0.00  0.00    +0.000 A 
ATOM     13  C   UNL     1      15.736  18.197  41.973  0.00  0.00    +0.000 A 
ATOM     14  C   UNL     1      10.134  18.473  44.362  0.00  0.00    +0.000 A 
ATOM     15  C   UNL     1      16.632  18.717  41.036  0.00  0.00    +0.000 A 
ENDROOT
BRANCH  11  16
ATOM     16  C   UNL     1      13.407  16.329  42.235  0.00  0.00    +0.000 C 
ATOM     17  C   UNL     1      14.059  15.415  43.155  0.00  0.00    +0.000 A 
ATOM     18  C   UNL     1      12.159  15.910  41.592  0.00  0.00    +0.000 A 
ATOM     19  C   UNL     1      13.309  14.422  43.798  0.00  0.00    +0.000 A 
ATOM     20  C   UNL     1      15.402  15.611  43.504  0.00  0.00    +0.000 A 
ATOM     21  C   UNL     1      11.288  15.050  42.278  0.00  0.00    +0.000 A 
ATOM     22  C   UNL     1      11.777  16.368  40.320  0.00  0.00    +0.000 A 
ATOM     23  C   UNL     1      11.841  14.306  43.476  0.00  0.00    +0.000 C 
ATOM     24  C   UNL     1      13.943  13.586  44.747  0.00  0.00    +0.000 A 
ATOM     25  C   UNL     1      15.981  14.886  44.551  0.00  0.00    +0.000 A 
ATOM     26  C   UNL     1       9.973  14.856  41.778  0.00  0.00    +0.000 A 
ATOM     27  C   UNL     1      10.495  16.167  39.831  0.00  0.00    +0.000 A 
ATOM     28  O   UNL     1      11.152  13.571  44.144  0.00  0.00    +0.000 OA
ATOM     29  C   UNL     1      15.254  13.850  45.133  0.00  0.00    +0.000 A 
ATOM     30  C   UNL     1       9.577  15.450  40.580  0.00  0.00    +0.000 A 
BRANCH  25  31
ATOM     31  C   UNL     1      17.335  15.248  45.094  0.00  0.00    +0.000 C 
ATOM     32  O   UNL     1      18.137  14.355  45.278  0.00  0.00    +0.000 OA
ATOM     33  O   UNL     1      17.597  16.425  45.254  0.00  0.00    +0.000 OA
ENDBRANCH  25  31
BRANCH  24  34
ATOM     34  O   UNL     1      13.345  12.491  45.329  0.00  0.00    +0.000 OA
ATOM     35  H   UNL     1      13.934  12.064  45.982  0.00  0.00    +0.000 HD
ENDBRANCH  24  34
BRANCH  26  36
ATOM     36  O   UNL     1       9.022  14.170  42.510  0.00  0.00    +0.000 OA
BRANCH  36  37
ATOM     37  C   UNL     1       7.914  14.684  43.329  0.00  0.00    +0.000 C 
ATOM     38  O   UNL     1       6.835  15.097  42.460  0.00  0.00    +0.000 OA
ATOM     39  C   UNL     1       7.342  13.499  44.150  0.00  0.00    +0.000 C 
ATOM     40  C   UNL     1       6.603  14.174  41.366  0.00  0.00    +0.000 C 
ATOM     41  C   UNL     1       7.171  12.318  43.188  0.00  0.00    +0.000 C 
ATOM     42  C   UNL     1       6.457  12.685  41.848  0.00  0.00    +0.000 C 
BRANCH  42  43
ATOM     43  O   UNL     1       7.080  11.834  40.877  0.00  0.00    +0.000 OA
ATOM     44  H   UNL     1       6.914  12.239  39.984  0.00  0.00    +0.000 HD
ENDBRANCH  42  43
BRANCH  41  45
ATOM     45  O   UNL     1       6.459  11.274  43.851  0.00  0.00    +0.000 OA
ATOM     46  H   UNL     1       6.711  11.357  44.777  0.00  0.00    +0.000 HD
ENDBRANCH  41  45
BRANCH  39  47
ATOM     47  O   UNL     1       6.063  13.760  44.765  0.00  0.00    +0.000 OA
ATOM     48  H   UNL     1       6.241  14.205  45.636  0.00  0.00    +0.000 HD
ENDBRANCH  39  47
BRANCH  40  49
ATOM     49  C   UNL     1       5.455  14.685  40.480  0.00  0.00    +0.000 C 
BRANCH  49  50
ATOM     50  O   UNL     1       5.986  15.538  39.445  0.00  0.00    +0.000 OA
ATOM     51  H   UNL     1       6.934  15.327  39.274  0.00  0.00    +0.000 HD
ENDBRANCH  49  50
ENDBRANCH  40  49
ENDBRANCH  36  37
ENDBRANCH  26  36
ENDBRANCH  11  16
BRANCH  15  52
ATOM     52  C   UNL     1      18.037  18.194  40.942  0.00  0.00    +0.000 C 
ATOM     53  O   UNL     1      18.823  18.781  40.223  0.00  0.00    +0.000 OA
ATOM     54  O   UNL     1      18.313  17.173  41.538  0.00  0.00    +0.000 OA
ENDBRANCH  15  52
BRANCH   7  55
ATOM     55  O   UNL     1      14.446  20.950  39.154  0.00  0.00    +0.000 OA
ATOM     56  H   UNL     1      14.690  21.835  39.495  0.00  0.00    +0.000 HD
ENDBRANCH   7  55
BRANCH   5  57
ATOM     57  O   UNL     1       9.762  20.916  41.652  0.00  0.00    +0.000 OA
BRANCH  57  58
ATOM     58  C   UNL     1       8.330  21.157  41.568  0.00  0.00    +0.000 C 
ATOM     59  O   UNL     1       7.934  21.508  40.218  0.00  0.00    +0.000 OA
ATOM     60  C   UNL     1       7.530  19.907  42.007  0.00  0.00    +0.000 C 
ATOM     61  C   UNL     1       8.160  20.493  39.198  0.00  0.00    +0.000 C 
ATOM     62  C   UNL     1       7.736  18.745  41.006  0.00  0.00    +0.000 C 
ATOM     63  C   UNL     1       7.394  19.193  39.565  0.00  0.00    +0.000 C 
BRANCH  60  64
ATOM     64  O   UNL     1       6.140  20.261  42.077  0.00  0.00    +0.000 OA
ATOM     65  H   UNL     1       5.846  20.144  43.003  0.00  0.00    +0.000 HD
ENDBRANCH  60  64
BRANCH  62  66
ATOM     66  O   UNL     1       6.926  17.613  41.375  0.00  0.00    +0.000 OA
ATOM     67  H   UNL     1       6.250  17.456  40.686  0.00  0.00    +0.000 HD
ENDBRANCH  62  66
BRANCH  63  68
ATOM     68  O   UNL     1       7.732  18.135  38.659  0.00  0.00    +0.000 OA
ATOM     69  H   UNL     1       7.259  17.324  38.936  0.00  0.00    +0.000 HD
ENDBRANCH  63  68
BRANCH  61  70
ATOM     70  C   UNL     1       7.691  21.081  37.847  0.00  0.00    +0.000 C 
BRANCH  70  71
ATOM     71  O   UNL     1       6.396  20.577  37.486  0.00  0.00    +0.000 OA
ATOM     72  H   UNL     1       6.510  19.682  37.109  0.00  0.00    +0.000 HD
ENDBRANCH  70  71
ENDBRANCH  61  70
ENDBRANCH  57  58
ENDBRANCH   5  57
TORSDOF 19
ENDMDL
MODEL 5
REMARK VINA RESULT:    -4.665      2.613      5.153
REMARK INTER + INTRA:         -12.761
REMARK INTER:                  -6.651
REMARK INTRA:                  -6.110
REMARK UNBOUND:                -4.278
REMARK  Name = opt73.pdb
REMARK  19 active torsions:
REMARK  status: ('A' for Active; 'I' for Inactive)
REMARK    1  A    between atoms: C_5  and  O_9
REMARK    2  A    between atoms: C_7  and  O_13
REMARK    3  A    between atoms: O_9  and  C_16
REMARK    4  A    between atoms: C_12  and  C_18
REMARK    5  A    between atoms: C_19  and  C_24
REMARK    6  A    between atoms: C_21  and  O_26
REMARK    7  A    between atoms: C_25  and  C_35
REMARK    8  A    between atoms: C_27  and  O_36
REMARK    9  A    between atoms: C_34  and  O_42
REMARK   10  A    between atoms: C_35  and  O_43
REMARK   11  A    between atoms: C_38  and  O_45
REMARK   12  A    between atoms: C_39  and  C_47
REMARK   13  A    between atoms: C_40  and  O_48
REMARK   14  A    between atoms: O_48  and  C_52
REMARK   15  A    between atoms: C_54  and  O_56
REMARK   16  A    between atoms: C_55  and  C_59
REMARK   17  A    between atoms: C_57  and  O_60
REMARK   18  A    between atoms: C_58  and  O_61
REMARK   19  A    between atoms: C_59  and  O_62
REMARK                            x       y       z     vdW  Elec       q    Type
REMARK                         _______ _______ _______ _____ _____    ______ ____
ROOT
ATOM      1  O   UNL     1       9.764  17.385  39.289  0.00  0.00    +0.000 OA
ATOM      2  C   UNL     1      10.904  17.754  39.519  0.00  0.00    +0.000 C 
ATOM      3  C   UNL     1      11.719  18.468  38.471  0.00  0.00    +0.000 A 
ATOM      4  C   UNL     1      11.594  17.386  40.812  0.00  0.00    +0.000 A 
ATOM      5  C   UNL     1      11.263  18.600  37.135  0.00  0.00    +0.000 A 
ATOM      6  C   UNL     1      13.005  18.940  38.817  0.00  0.00    +0.000 A 
ATOM      7  C   UNL     1      10.965  16.602  41.796  0.00  0.00    +0.000 A 
ATOM      8  C   UNL     1      12.905  17.827  41.043  0.00  0.00    +0.000 A 
ATOM      9  C   UNL     1      12.088  19.181  36.172  0.00  0.00    +0.000 A 
ATOM     10  C   UNL     1      13.831  19.437  37.798  0.00  0.00    +0.000 A 
ATOM     11  C   UNL     1      13.472  18.857  40.203  0.00  0.00    +0.000 C 
ATOM     12  C   UNL     1      11.632  16.279  42.975  0.00  0.00    +0.000 A 
ATOM     13  C   UNL     1      13.588  17.438  42.201  0.00  0.00    +0.000 A 
ATOM     14  C   UNL     1      13.373  19.578  36.497  0.00  0.00    +0.000 A 
ATOM     15  C   UNL     1      12.940  16.704  43.198  0.00  0.00    +0.000 A 
ENDROOT
BRANCH  11  16
ATOM     16  C   UNL     1      13.636  20.141  40.908  0.00  0.00    +0.000 C 
ATOM     17  C   UNL     1      12.582  20.435  41.861  0.00  0.00    +0.000 A 
ATOM     18  C   UNL     1      15.020  20.463  41.266  0.00  0.00    +0.000 A 
ATOM     19  C   UNL     1      12.885  20.531  43.225  0.00  0.00    +0.000 A 
ATOM     20  C   UNL     1      11.247  20.484  41.438  0.00  0.00    +0.000 A 
ATOM     21  C   UNL     1      15.414  20.400  42.610  0.00  0.00    +0.000 A 
ATOM     22  C   UNL     1      15.988  20.799  40.303  0.00  0.00    +0.000 A 
ATOM     23  C   UNL     1      14.320  20.369  43.658  0.00  0.00    +0.000 C 
ATOM     24  C   UNL     1      11.836  20.745  44.150  0.00  0.00    +0.000 A 
ATOM     25  C   UNL     1      10.205  20.541  42.368  0.00  0.00    +0.000 A 
ATOM     26  C   UNL     1      16.798  20.450  42.928  0.00  0.00    +0.000 A 
ATOM     27  C   UNL     1      17.336  20.858  40.620  0.00  0.00    +0.000 A 
ATOM     28  O   UNL     1      14.569  20.282  44.838  0.00  0.00    +0.000 OA
ATOM     29  C   UNL     1      10.515  20.713  43.715  0.00  0.00    +0.000 A 
ATOM     30  C   UNL     1      17.747  20.638  41.925  0.00  0.00    +0.000 A 
BRANCH  25  31
ATOM     31  C   UNL     1       8.773  20.354  41.946  0.00  0.00    +0.000 C 
ATOM     32  O   UNL     1       8.097  21.344  41.760  0.00  0.00    +0.000 OA
ATOM     33  O   UNL     1       8.377  19.224  41.737  0.00  0.00    +0.000 OA
ENDBRANCH  25  31
BRANCH  24  34
ATOM     34  O   UNL     1      12.032  21.001  45.489  0.00  0.00    +0.000 OA
ATOM     35  H   UNL     1      12.364  20.212  45.961  0.00  0.00    +0.000 HD
ENDBRANCH  24  34
BRANCH  26  36
ATOM     36  O   UNL     1      17.246  20.208  44.213  0.00  0.00    +0.000 OA
BRANCH  36  37
ATOM     37  C   UNL     1      18.558  19.734  44.678  0.00  0.00    +0.000 C 
ATOM     38  O   UNL     1      18.725  20.089  46.069  0.00  0.00    +0.000 OA
ATOM     39  C   UNL     1      18.535  18.183  44.655  0.00  0.00    +0.000 C 
ATOM     40  C   UNL     1      17.525  19.883  46.855  0.00  0.00    +0.000 C 
ATOM     41  C   UNL     1      17.224  17.736  45.310  0.00  0.00    +0.000 C 
ATOM     42  C   UNL     1      16.912  18.448  46.666  0.00  0.00    +0.000 C 
BRANCH  42  43
ATOM     43  O   UNL     1      15.484  18.562  46.679  0.00  0.00    +0.000 OA
ATOM     44  H   UNL     1      15.227  18.909  47.574  0.00  0.00    +0.000 HD
ENDBRANCH  42  43
BRANCH  41  45
ATOM     45  O   UNL     1      17.252  16.321  45.496  0.00  0.00    +0.000 OA
ATOM     46  H   UNL     1      17.160  15.957  44.609  0.00  0.00    +0.000 HD
ENDBRANCH  41  45
BRANCH  39  47
ATOM     47  O   UNL     1      19.624  17.559  45.368  0.00  0.00    +0.000 OA
ATOM     48  H   UNL     1      19.229  17.065  46.134  0.00  0.00    +0.000 HD
ENDBRANCH  39  47
BRANCH  40  49
ATOM     49  C   UNL     1      17.774  20.295  48.316  0.00  0.00    +0.000 C 
BRANCH  49  50
ATOM     50  O   UNL     1      16.824  19.631  49.174  0.00  0.00    +0.000 OA
ATOM     51  H   UNL     1      17.133  18.722  49.397  0.00  0.00    +0.000 HD
ENDBRANCH  49  50
ENDBRANCH  40  49
ENDBRANCH  36  37
ENDBRANCH  26  36
ENDBRANCH  11  16
BRANCH  15  52
ATOM     52  C   UNL     1      13.592  16.472  44.531  0.00  0.00    +0.000 C 
ATOM     53  O   UNL     1      13.317  17.225  45.446  0.00  0.00    +0.000 OA
ATOM     54  O   UNL     1      14.412  15.582  44.624  0.00  0.00    +0.000 OA
ENDBRANCH  15  52
BRANCH   7  55
ATOM     55  O   UNL     1       9.674  16.182  41.659  0.00  0.00    +0.000 OA
ATOM     56  H   UNL     1       9.241  16.817  41.052  0.00  0.00    +0.000 HD
ENDBRANCH   7  55
BRANCH   5  57
ATOM     57  O   UNL     1      10.018  18.116  36.727  0.00  0.00    +0.000 OA
BRANCH  57  58
ATOM     58  C   UNL     1       9.026  18.946  36.061  0.00  0.00    +0.000 C 
ATOM     59  O   UNL     1       7.719  18.318  36.076  0.00  0.00    +0.000 OA
ATOM     60  C   UNL     1       8.915  20.331  36.742  0.00  0.00    +0.000 C 
ATOM     61  C   UNL     1       7.132  18.088  37.390  0.00  0.00    +0.000 C 
ATOM     62  C   UNL     1       8.337  20.195  38.172  0.00  0.00    +0.000 C 
ATOM     63  C   UNL     1       6.990  19.434  38.150  0.00  0.00    +0.000 C 
BRANCH  60  64
ATOM     64  O   UNL     1       8.062  21.163  35.940  0.00  0.00    +0.000 OA
ATOM     65  H   UNL     1       7.152  21.090  36.293  0.00  0.00    +0.000 HD
ENDBRANCH  60  64
BRANCH  62  66
ATOM     66  O   UNL     1       8.160  21.494  38.769  0.00  0.00    +0.000 OA
ATOM     67  H   UNL     1       8.246  22.183  38.082  0.00  0.00    +0.000 HD
ENDBRANCH  62  66
BRANCH  63  68
ATOM     68  O   UNL     1       6.564  19.210  39.500  0.00  0.00    +0.000 OA
ATOM     69  H   UNL     1       5.608  19.409  39.564  0.00  0.00    +0.000 HD
ENDBRANCH  63  68
BRANCH  61  70
ATOM     70  C   UNL     1       5.765  17.398  37.172  0.00  0.00    +0.000 C 
BRANCH  70  71
ATOM     71  O   UNL     1       5.450  16.520  38.264  0.00  0.00    +0.000 OA
ATOM     72  H   UNL     1       4.492  16.327  38.235  0.00  0.00    +0.000 HD
ENDBRANCH  70  71
ENDBRANCH  61  70
ENDBRANCH  57  58
ENDBRANCH   5  57
TORSDOF 19
ENDMDL
MODEL 6
REMARK VINA RESULT:    -4.548      2.944      9.766
REMARK INTER + INTRA:         -12.549
REMARK INTER:                  -7.904
REMARK INTRA:                  -4.645
REMARK UNBOUND:                -4.278
REMARK  Name = opt73.pdb
REMARK  19 active torsions:
REMARK  status: ('A' for Active; 'I' for Inactive)
REMARK    1  A    between atoms: C_5  and  O_9
REMARK    2  A    between atoms: C_7  and  O_13
REMARK    3  A    between atoms: O_9  and  C_16
REMARK    4  A    between atoms: C_12  and  C_18
REMARK    5  A    between atoms: C_19  and  C_24
REMARK    6  A    between atoms: C_21  and  O_26
REMARK    7  A    between atoms: C_25  and  C_35
REMARK    8  A    between atoms: C_27  and  O_36
REMARK    9  A    between atoms: C_34  and  O_42
REMARK   10  A    between atoms: C_35  and  O_43
REMARK   11  A    between atoms: C_38  and  O_45
REMARK   12  A    between atoms: C_39  and  C_47
REMARK   13  A    between atoms: C_40  and  O_48
REMARK   14  A    between atoms: O_48  and  C_52
REMARK   15  A    between atoms: C_54  and  O_56
REMARK   16  A    between atoms: C_55  and  C_59
REMARK   17  A    between atoms: C_57  and  O_60
REMARK   18  A    between atoms: C_58  and  O_61
REMARK   19  A    between atoms: C_59  and  O_62
REMARK                            x       y       z     vdW  Elec       q    Type
REMARK                         _______ _______ _______ _____ _____    ______ ____
ROOT
ATOM      1  O   UNL     1      14.787  16.966  44.580  0.00  0.00    +0.000 OA
ATOM      2  C   UNL     1      14.630  17.469  43.480  0.00  0.00    +0.000 C 
ATOM      3  C   UNL     1      13.447  17.107  42.618  0.00  0.00    +0.000 A 
ATOM      4  C   UNL     1      15.686  18.366  42.878  0.00  0.00    +0.000 A 
ATOM      5  C   UNL     1      12.561  16.058  42.974  0.00  0.00    +0.000 A 
ATOM      6  C   UNL     1      13.275  17.776  41.386  0.00  0.00    +0.000 A 
ATOM      7  C   UNL     1      16.890  18.654  43.545  0.00  0.00    +0.000 A 
ATOM      8  C   UNL     1      15.472  18.927  41.610  0.00  0.00    +0.000 A 
ATOM      9  C   UNL     1      11.535  15.689  42.103  0.00  0.00    +0.000 A 
ATOM     10  C   UNL     1      12.285  17.312  40.507  0.00  0.00    +0.000 A 
ATOM     11  C   UNL     1      14.150  18.894  41.026  0.00  0.00    +0.000 C 
ATOM     12  C   UNL     1      17.843  19.483  42.959  0.00  0.00    +0.000 A 
ATOM     13  C   UNL     1      16.467  19.703  41.003  0.00  0.00    +0.000 A 
ATOM     14  C   UNL     1      11.412  16.298  40.867  0.00  0.00    +0.000 A 
ATOM     15  C   UNL     1      17.638  20.027  41.693  0.00  0.00    +0.000 A 
ENDROOT
BRANCH  11  16
ATOM     16  C   UNL     1      13.516  20.223  40.977  0.00  0.00    +0.000 C 
ATOM     17  C   UNL     1      13.029  20.602  39.664  0.00  0.00    +0.000 A 
ATOM     18  C   UNL     1      12.702  20.549  42.152  0.00  0.00    +0.000 A 
ATOM     19  C   UNL     1      11.657  20.793  39.459  0.00  0.00    +0.000 A 
ATOM     20  C   UNL     1      13.909  20.640  38.574  0.00  0.00    +0.000 A 
ATOM     21  C   UNL     1      11.305  20.578  42.033  0.00  0.00    +0.000 A 
ATOM     22  C   UNL     1      13.268  20.799  43.414  0.00  0.00    +0.000 A 
ATOM     23  C   UNL     1      10.724  20.641  40.634  0.00  0.00    +0.000 C 
ATOM     24  C   UNL     1      11.189  21.090  38.158  0.00  0.00    +0.000 A 
ATOM     25  C   UNL     1      13.424  20.781  37.270  0.00  0.00    +0.000 A 
ATOM     26  C   UNL     1      10.512  20.631  43.210  0.00  0.00    +0.000 A 
ATOM     27  C   UNL     1      12.489  20.860  44.559  0.00  0.00    +0.000 A 
ATOM     28  O   UNL     1       9.531  20.637  40.439  0.00  0.00    +0.000 OA
ATOM     29  C   UNL     1      12.070  21.046  37.081  0.00  0.00    +0.000 A 
ATOM     30  C   UNL     1      11.113  20.730  44.464  0.00  0.00    +0.000 A 
BRANCH  25  31
ATOM     31  C   UNL     1      14.322  20.585  36.080  0.00  0.00    +0.000 C 
ATOM     32  O   UNL     1      15.031  21.510  35.739  0.00  0.00    +0.000 OA
ATOM     33  O   UNL     1      14.357  19.488  35.558  0.00  0.00    +0.000 OA
ENDBRANCH  25  31
BRANCH  24  34
ATOM     34  O   UNL     1       9.889  21.440  37.868  0.00  0.00    +0.000 OA
ATOM     35  H   UNL     1       9.250  20.890  38.364  0.00  0.00    +0.000 HD
ENDBRANCH  24  34
BRANCH  26  36
ATOM     36  O   UNL     1       9.139  20.477  43.156  0.00  0.00    +0.000 OA
BRANCH  36  37
ATOM     37  C   UNL     1       8.072  21.387  43.600  0.00  0.00    +0.000 C 
ATOM     38  O   UNL     1       7.039  21.434  42.591  0.00  0.00    +0.000 OA
ATOM     39  C   UNL     1       7.397  20.751  44.844  0.00  0.00    +0.000 C 
ATOM     40  C   UNL     1       6.737  20.133  42.027  0.00  0.00    +0.000 C 
ATOM     41  C   UNL     1       7.132  19.278  44.517  0.00  0.00    +0.000 C 
ATOM     42  C   UNL     1       6.462  19.042  43.125  0.00  0.00    +0.000 C 
BRANCH  42  43
ATOM     43  O   UNL     1       7.017  17.800  42.676  0.00  0.00    +0.000 OA
ATOM     44  H   UNL     1       7.128  17.223  43.478  0.00  0.00    +0.000 HD
ENDBRANCH  42  43
BRANCH  41  45
ATOM     45  O   UNL     1       6.330  18.706  45.549  0.00  0.00    +0.000 OA
ATOM     46  H   UNL     1       5.842  19.449  45.919  0.00  0.00    +0.000 HD
ENDBRANCH  41  45
BRANCH  39  47
ATOM     47  O   UNL     1       6.140  21.356  45.215  0.00  0.00    +0.000 OA
ATOM     48  H   UNL     1       5.434  20.936  44.656  0.00  0.00    +0.000 HD
ENDBRANCH  39  47
BRANCH  40  49
ATOM     49  C   UNL     1       5.642  20.264  40.954  0.00  0.00    +0.000 C 
BRANCH  49  50
ATOM     50  O   UNL     1       5.770  19.191  40.000  0.00  0.00    +0.000 OA
ATOM     51  H   UNL     1       5.289  18.389  40.313  0.00  0.00    +0.000 HD
ENDBRANCH  49  50
ENDBRANCH  40  49
ENDBRANCH  36  37
ENDBRANCH  26  36
ENDBRANCH  11  16
BRANCH  15  52
ATOM     52  C   UNL     1      18.606  21.033  41.138  0.00  0.00    +0.000 C 
ATOM     53  O   UNL     1      18.559  21.282  39.949  0.00  0.00    +0.000 OA
ATOM     54  O   UNL     1      19.435  21.509  41.886  0.00  0.00    +0.000 OA
ENDBRANCH  15  52
BRANCH   7  55
ATOM     55  O   UNL     1      17.142  18.183  44.801  0.00  0.00    +0.000 OA
ATOM     56  H   UNL     1      16.389  17.600  45.032  0.00  0.00    +0.000 HD
ENDBRANCH   7  55
BRANCH   5  57
ATOM     57  O   UNL     1      12.707  15.335  44.160  0.00  0.00    +0.000 OA
BRANCH  57  58
ATOM     58  C   UNL     1      12.873  13.891  44.190  0.00  0.00    +0.000 C 
ATOM     59  O   UNL     1      13.499  13.408  42.974  0.00  0.00    +0.000 OA
ATOM     60  C   UNL     1      13.740  13.457  45.397  0.00  0.00    +0.000 C 
ATOM     61  C   UNL     1      14.848  13.891  42.711  0.00  0.00    +0.000 C 
ATOM     62  C   UNL     1      15.195  13.960  45.237  0.00  0.00    +0.000 C 
ATOM     63  C   UNL     1      15.789  13.503  43.884  0.00  0.00    +0.000 C 
BRANCH  60  64
ATOM     64  O   UNL     1      13.718  12.023  45.477  0.00  0.00    +0.000 OA
ATOM     65  H   UNL     1      12.783  11.735  45.452  0.00  0.00    +0.000 HD
ENDBRANCH  60  64
BRANCH  62  66
ATOM     66  O   UNL     1      16.014  13.485  46.321  0.00  0.00    +0.000 OA
ATOM     67  H   UNL     1      15.512  13.538  47.158  0.00  0.00    +0.000 HD
ENDBRANCH  62  66
BRANCH  63  68
ATOM     68  O   UNL     1      17.078  14.106  43.718  0.00  0.00    +0.000 OA
ATOM     69  H   UNL     1      17.764  13.440  43.926  0.00  0.00    +0.000 HD
ENDBRANCH  63  68
BRANCH  61  70
ATOM     70  C   UNL     1      15.308  13.274  41.370  0.00  0.00    +0.000 C 
BRANCH  70  71
ATOM     71  O   UNL     1      16.454  13.965  40.849  0.00  0.00    +0.000 OA
ATOM     72  H   UNL     1      17.151  13.305  40.663  0.00  0.00    +0.000 HD
ENDBRANCH  70  71
ENDBRANCH  61  70
ENDBRANCH  57  58
ENDBRANCH   5  57
TORSDOF 19
ENDMDL
MODEL 7
REMARK VINA RESULT:    -4.546      2.637      9.018
REMARK INTER + INTRA:         -12.544
REMARK INTER:                  -9.449
REMARK INTRA:                  -3.095
REMARK UNBOUND:                -4.278
REMARK  Name = opt73.pdb
REMARK  19 active torsions:
REMARK  status: ('A' for Active; 'I' for Inactive)
REMARK    1  A    between atoms: C_5  and  O_9
REMARK    2  A    between atoms: C_7  and  O_13
REMARK    3  A    between atoms: O_9  and  C_16
REMARK    4  A    between atoms: C_12  and  C_18
REMARK    5  A    between atoms: C_19  and  C_24
REMARK    6  A    between atoms: C_21  and  O_26
REMARK    7  A    between atoms: C_25  and  C_35
REMARK    8  A    between atoms: C_27  and  O_36
REMARK    9  A    between atoms: C_34  and  O_42
REMARK   10  A    between atoms: C_35  and  O_43
REMARK   11  A    between atoms: C_38  and  O_45
REMARK   12  A    between atoms: C_39  and  C_47
REMARK   13  A    between atoms: C_40  and  O_48
REMARK   14  A    between atoms: O_48  and  C_52
REMARK   15  A    between atoms: C_54  and  O_56
REMARK   16  A    between atoms: C_55  and  C_59
REMARK   17  A    between atoms: C_57  and  O_60
REMARK   18  A    between atoms: C_58  and  O_61
REMARK   19  A    between atoms: C_59  and  O_62
REMARK                            x       y       z     vdW  Elec       q    Type
REMARK                         _______ _______ _______ _____ _____    ______ ____
ROOT
ATOM      1  O   UNL     1      15.413  19.546  41.502  0.00  0.00    +0.000 OA
ATOM      2  C   UNL     1      14.876  18.460  41.654  0.00  0.00    +0.000 C 
ATOM      3  C   UNL     1      15.570  17.344  42.391  0.00  0.00    +0.000 A 
ATOM      4  C   UNL     1      13.556  18.147  40.988  0.00  0.00    +0.000 A 
ATOM      5  C   UNL     1      16.925  17.449  42.797  0.00  0.00    +0.000 A 
ATOM      6  C   UNL     1      14.872  16.134  42.602  0.00  0.00    +0.000 A 
ATOM      7  C   UNL     1      12.896  19.076  40.165  0.00  0.00    +0.000 A 
ATOM      8  C   UNL     1      12.969  16.888  41.184  0.00  0.00    +0.000 A 
ATOM      9  C   UNL     1      17.560  16.357  43.389  0.00  0.00    +0.000 A 
ATOM     10  C   UNL     1      15.577  15.037  43.121  0.00  0.00    +0.000 A 
ATOM     11  C   UNL     1      13.458  16.025  42.235  0.00  0.00    +0.000 C 
ATOM     12  C   UNL     1      11.682  18.752  39.565  0.00  0.00    +0.000 A 
ATOM     13  C   UNL     1      11.783  16.551  40.520  0.00  0.00    +0.000 A 
ATOM     14  C   UNL     1      16.896  15.152  43.531  0.00  0.00    +0.000 A 
ATOM     15  C   UNL     1      11.106  17.496  39.746  0.00  0.00    +0.000 A 
ENDROOT
BRANCH  11  16
ATOM     16  C   UNL     1      12.508  15.893  43.352  0.00  0.00    +0.000 C 
ATOM     17  C   UNL     1      11.716  17.083  43.604  0.00  0.00    +0.000 A 
ATOM     18  C   UNL     1      11.859  14.582  43.444  0.00  0.00    +0.000 A 
ATOM     19  C   UNL     1      10.327  17.043  43.433  0.00  0.00    +0.000 A 
ATOM     20  C   UNL     1      12.350  18.301  43.882  0.00  0.00    +0.000 A 
ATOM     21  C   UNL     1      10.502  14.463  43.109  0.00  0.00    +0.000 A 
ATOM     22  C   UNL     1      12.556  13.422  43.821  0.00  0.00    +0.000 A 
ATOM     23  C   UNL     1       9.687  15.738  43.032  0.00  0.00    +0.000 C 
ATOM     24  C   UNL     1       9.576  18.229  43.610  0.00  0.00    +0.000 A 
ATOM     25  C   UNL     1      11.623  19.495  43.904  0.00  0.00    +0.000 A 
ATOM     26  C   UNL     1       9.943  13.168  42.942  0.00  0.00    +0.000 A 
ATOM     27  C   UNL     1      12.002  12.160  43.666  0.00  0.00    +0.000 A 
ATOM     28  O   UNL     1       8.519  15.730  42.719  0.00  0.00    +0.000 OA
ATOM     29  C   UNL     1      10.234  19.439  43.808  0.00  0.00    +0.000 A 
ATOM     30  C   UNL     1      10.711  12.030  43.182  0.00  0.00    +0.000 A 
BRANCH  25  31
ATOM     31  C   UNL     1      12.316  20.829  43.960  0.00  0.00    +0.000 C 
ATOM     32  O   UNL     1      12.386  21.393  45.033  0.00  0.00    +0.000 OA
ATOM     33  O   UNL     1      12.843  21.249  42.948  0.00  0.00    +0.000 OA
ENDBRANCH  25  31
BRANCH  24  34
ATOM     34  O   UNL     1       8.200  18.276  43.612  0.00  0.00    +0.000 OA
ATOM     35  H   UNL     1       7.826  17.867  42.807  0.00  0.00    +0.000 HD
ENDBRANCH  24  34
BRANCH  26  36
ATOM     36  O   UNL     1       8.667  12.999  42.436  0.00  0.00    +0.000 OA
BRANCH  36  37
ATOM     37  C   UNL     1       7.560  12.170  42.935  0.00  0.00    +0.000 C 
ATOM     38  O   UNL     1       6.651  13.001  43.693  0.00  0.00    +0.000 OA
ATOM     39  C   UNL     1       6.741  11.687  41.710  0.00  0.00    +0.000 C 
ATOM     40  C   UNL     1       6.413  14.291  43.075  0.00  0.00    +0.000 C 
ATOM     41  C   UNL     1       6.511  12.903  40.806  0.00  0.00    +0.000 C 
ATOM     42  C   UNL     1       6.007  14.174  41.561  0.00  0.00    +0.000 C 
BRANCH  42  43
ATOM     43  O   UNL     1       6.606  15.264  40.849  0.00  0.00    +0.000 OA
ATOM     44  H   UNL     1       6.057  16.072  41.034  0.00  0.00    +0.000 HD
ENDBRANCH  42  43
BRANCH  41  45
ATOM     45  O   UNL     1       5.591  12.551  39.773  0.00  0.00    +0.000 OA
ATOM     46  H   UNL     1       5.242  13.393  39.460  0.00  0.00    +0.000 HD
ENDBRANCH  41  45
BRANCH  39  47
ATOM     47  O   UNL     1       5.451  11.126  42.036  0.00  0.00    +0.000 OA
ATOM     48  H   UNL     1       4.795  11.502  41.392  0.00  0.00    +0.000 HD
ENDBRANCH  39  47
BRANCH  40  49
ATOM     49  C   UNL     1       5.452  15.121  43.943  0.00  0.00    +0.000 C 
BRANCH  49  50
ATOM     50  O   UNL     1       6.039  16.409  44.217  0.00  0.00    +0.000 OA
ATOM     51  H   UNL     1       6.968  16.308  44.531  0.00  0.00    +0.000 HD
ENDBRANCH  49  50
ENDBRANCH  40  49
ENDBRANCH  36  37
ENDBRANCH  26  36
ENDBRANCH  11  16
BRANCH  15  52
ATOM     52  C   UNL     1       9.730  17.213  39.213  0.00  0.00    +0.000 C 
ATOM     53  O   UNL     1       8.795  17.237  39.990  0.00  0.00    +0.000 OA
ATOM     54  O   UNL     1       9.617  16.911  38.043  0.00  0.00    +0.000 OA
ENDBRANCH  15  52
BRANCH   7  55
ATOM     55  O   UNL     1      13.386  20.336  39.972  0.00  0.00    +0.000 OA
ATOM     56  H   UNL     1      13.185  20.837  40.789  0.00  0.00    +0.000 HD
ENDBRANCH   7  55
BRANCH   5  57
ATOM     57  O   UNL     1      17.676  18.606  42.577  0.00  0.00    +0.000 OA
BRANCH  57  58
ATOM     58  C   UNL     1      18.987  18.590  41.947  0.00  0.00    +0.000 C 
ATOM     59  O   UNL     1      19.264  17.302  41.341  0.00  0.00    +0.000 OA
ATOM     60  C   UNL     1      19.090  19.680  40.853  0.00  0.00    +0.000 C 
ATOM     61  C   UNL     1      18.372  16.893  40.264  0.00  0.00    +0.000 C 
ATOM     62  C   UNL     1      18.143  19.363  39.671  0.00  0.00    +0.000 C 
ATOM     63  C   UNL     1      18.409  17.942  39.120  0.00  0.00    +0.000 C 
BRANCH  60  64
ATOM     64  O   UNL     1      20.450  19.737  40.397  0.00  0.00    +0.000 OA
ATOM     65  H   UNL     1      21.032  19.704  41.183  0.00  0.00    +0.000 HD
ENDBRANCH  60  64
BRANCH  62  66
ATOM     66  O   UNL     1      18.303  20.337  38.622  0.00  0.00    +0.000 OA
ATOM     67  H   UNL     1      17.489  20.873  38.548  0.00  0.00    +0.000 HD
ENDBRANCH  62  66
BRANCH  63  68
ATOM     68  O   UNL     1      17.421  17.640  38.125  0.00  0.00    +0.000 OA
ATOM     69  H   UNL     1      17.746  17.954  37.257  0.00  0.00    +0.000 HD
ENDBRANCH  63  68
BRANCH  61  70
ATOM     70  C   UNL     1      18.833  15.497  39.785  0.00  0.00    +0.000 C 
BRANCH  70  71
ATOM     71  O   UNL     1      17.708  14.658  39.480  0.00  0.00    +0.000 OA
ATOM     72  H   UNL     1      17.948  13.735  39.695  0.00  0.00    +0.000 HD
ENDBRANCH  70  71
ENDBRANCH  61  70
ENDBRANCH  57  58
ENDBRANCH   5  57
TORSDOF 19
ENDMDL
MODEL 8
REMARK VINA RESULT:    -4.405      2.662      6.277
REMARK INTER + INTRA:         -12.287
REMARK INTER:                  -8.905
REMARK INTRA:                  -3.383
REMARK UNBOUND:                -4.278
REMARK  Name = opt73.pdb
REMARK  19 active torsions:
REMARK  status: ('A' for Active; 'I' for Inactive)
REMARK    1  A    between atoms: C_5  and  O_9
REMARK    2  A    between atoms: C_7  and  O_13
REMARK    3  A    between atoms: O_9  and  C_16
REMARK    4  A    between atoms: C_12  and  C_18
REMARK    5  A    between atoms: C_19  and  C_24
REMARK    6  A    between atoms: C_21  and  O_26
REMARK    7  A    between atoms: C_25  and  C_35
REMARK    8  A    between atoms: C_27  and  O_36
REMARK    9  A    between atoms: C_34  and  O_42
REMARK   10  A    between atoms: C_35  and  O_43
REMARK   11  A    between atoms: C_38  and  O_45
REMARK   12  A    between atoms: C_39  and  C_47
REMARK   13  A    between atoms: C_40  and  O_48
REMARK   14  A    between atoms: O_48  and  C_52
REMARK   15  A    between atoms: C_54  and  O_56
REMARK   16  A    between atoms: C_55  and  C_59
REMARK   17  A    between atoms: C_57  and  O_60
REMARK   18  A    between atoms: C_58  and  O_61
REMARK   19  A    between atoms: C_59  and  O_62
REMARK                            x       y       z     vdW  Elec       q    Type
REMARK                         _______ _______ _______ _____ _____    ______ ____
ROOT
ATOM      1  O   UNL     1      10.311  15.366  43.013  0.00  0.00    +0.000 OA
ATOM      2  C   UNL     1      11.197  15.947  42.407  0.00  0.00    +0.000 C 
ATOM      3  C   UNL     1      10.966  16.489  41.019  0.00  0.00    +0.000 A 
ATOM      4  C   UNL     1      12.599  16.022  42.964  0.00  0.00    +0.000 A 
ATOM      5  C   UNL     1       9.775  16.211  40.300  0.00  0.00    +0.000 A 
ATOM      6  C   UNL     1      12.003  17.218  40.395  0.00  0.00    +0.000 A 
ATOM      7  C   UNL     1      12.949  15.426  44.189  0.00  0.00    +0.000 A 
ATOM      8  C   UNL     1      13.592  16.697  42.239  0.00  0.00    +0.000 A 
ATOM      9  C   UNL     1       9.641  16.649  38.982  0.00  0.00    +0.000 A 
ATOM     10  C   UNL     1      11.857  17.561  39.042  0.00  0.00    +0.000 A 
ATOM     11  C   UNL     1      13.217  17.556  41.139  0.00  0.00    +0.000 C 
ATOM     12  C   UNL     1      14.252  15.512  44.671  0.00  0.00    +0.000 A 
ATOM     13  C   UNL     1      14.914  16.717  42.701  0.00  0.00    +0.000 A 
ATOM     14  C   UNL     1      10.684  17.301  38.350  0.00  0.00    +0.000 A 
ATOM     15  C   UNL     1      15.243  16.169  43.944  0.00  0.00    +0.000 A 
ENDROOT
BRANCH  11  16
ATOM     16  C   UNL     1      13.415  18.985  41.440  0.00  0.00    +0.000 C 
ATOM     17  C   UNL     1      12.392  19.561  42.291  0.00  0.00    +0.000 A 
ATOM     18  C   UNL     1      14.813  19.370  41.657  0.00  0.00    +0.000 A 
ATOM     19  C   UNL     1      12.733  20.042  43.562  0.00  0.00    +0.000 A 
ATOM     20  C   UNL     1      11.046  19.512  41.903  0.00  0.00    +0.000 A 
ATOM     21  C   UNL     1      15.243  19.690  42.953  0.00  0.00    +0.000 A 
ATOM     22  C   UNL     1      15.757  19.396  40.617  0.00  0.00    +0.000 A 
ATOM     23  C   UNL     1      14.177  19.984  43.990  0.00  0.00    +0.000 C 
ATOM     24  C   UNL     1      11.713  20.533  44.410  0.00  0.00    +0.000 A 
ATOM     25  C   UNL     1      10.031  19.855  42.801  0.00  0.00    +0.000 A 
ATOM     26  C   UNL     1      16.635  19.804  43.211  0.00  0.00    +0.000 A 
ATOM     27  C   UNL     1      17.114  19.518  40.872  0.00  0.00    +0.000 A 
ATOM     28  O   UNL     1      14.458  20.236  45.139  0.00  0.00    +0.000 OA
ATOM     29  C   UNL     1      10.380  20.402  44.033  0.00  0.00    +0.000 A 
ATOM     30  C   UNL     1      17.558  19.675  42.175  0.00  0.00    +0.000 A 
BRANCH  25  31
ATOM     31  C   UNL     1       8.586  19.581  42.484  0.00  0.00    +0.000 C 
ATOM     32  O   UNL     1       7.771  19.704  43.377  0.00  0.00    +0.000 OA
ATOM     33  O   UNL     1       8.286  19.324  41.335  0.00  0.00    +0.000 OA
ENDBRANCH  25  31
BRANCH  24  34
ATOM     34  O   UNL     1      11.948  21.160  45.613  0.00  0.00    +0.000 OA
ATOM     35  H   UNL     1      11.481  22.017  45.669  0.00  0.00    +0.000 HD
ENDBRANCH  24  34
BRANCH  26  36
ATOM     36  O   UNL     1      17.116  19.934  44.501  0.00  0.00    +0.000 OA
BRANCH  36  37
ATOM     37  C   UNL     1      18.350  20.570  44.984  0.00  0.00    +0.000 C 
ATOM     38  O   UNL     1      18.057  21.326  46.181  0.00  0.00    +0.000 OA
ATOM     39  C   UNL     1      19.314  19.444  45.442  0.00  0.00    +0.000 C 
ATOM     40  C   UNL     1      17.160  20.632  47.084  0.00  0.00    +0.000 C 
ATOM     41  C   UNL     1      18.503  18.471  46.304  0.00  0.00    +0.000 C 
ATOM     42  C   UNL     1      17.624  19.164  47.395  0.00  0.00    +0.000 C 
BRANCH  42  43
ATOM     43  O   UNL     1      16.461  18.332  47.484  0.00  0.00    +0.000 OA
ATOM     44  H   UNL     1      16.568  17.765  48.294  0.00  0.00    +0.000 HD
ENDBRANCH  42  43
BRANCH  41  45
ATOM     45  O   UNL     1      19.390  17.534  46.913  0.00  0.00    +0.000 OA
ATOM     46  H   UNL     1      20.036  18.077  47.378  0.00  0.00    +0.000 HD
ENDBRANCH  41  45
BRANCH  39  47
ATOM     47  O   UNL     1      20.437  19.901  46.225  0.00  0.00    +0.000 OA
ATOM     48  H   UNL     1      20.232  19.704  47.177  0.00  0.00    +0.000 HD
ENDBRANCH  39  47
BRANCH  40  49
ATOM     49  C   UNL     1      16.883  21.502  48.322  0.00  0.00    +0.000 C 
BRANCH  49  50
ATOM     50  O   UNL     1      17.312  20.803  49.509  0.00  0.00    +0.000 OA
ATOM     51  H   UNL     1      17.025  21.284  50.319  0.00  0.00    +0.000 HD
ENDBRANCH  49  50
ENDBRANCH  40  49
ENDBRANCH  36  37
ENDBRANCH  26  36
ENDBRANCH  11  16
BRANCH  15  52
ATOM     52  C   UNL     1      16.604  16.379  44.542  0.00  0.00    +0.000 C 
ATOM     53  O   UNL     1      17.474  16.861  43.842  0.00  0.00    +0.000 OA
ATOM     54  O   UNL     1      16.798  16.002  45.680  0.00  0.00    +0.000 OA
ENDBRANCH  15  52
BRANCH   7  55
ATOM     55  O   UNL     1      12.021  14.797  44.968  0.00  0.00    +0.000 OA
ATOM     56  H   UNL     1      11.405  15.493  45.278  0.00  0.00    +0.000 HD
ENDBRANCH   7  55
BRANCH   5  57
ATOM     57  O   UNL     1       8.735  15.461  40.852  0.00  0.00    +0.000 OA
BRANCH  57  58
ATOM     58  C   UNL     1       7.339  15.859  40.764  0.00  0.00    +0.000 C 
ATOM     59  O   UNL     1       6.490  14.733  40.426  0.00  0.00    +0.000 OA
ATOM     60  C   UNL     1       6.848  16.461  42.103  0.00  0.00    +0.000 C 
ATOM     61  C   UNL     1       6.463  13.638  41.387  0.00  0.00    +0.000 C 
ATOM     62  C   UNL     1       6.822  15.383  43.213  0.00  0.00    +0.000 C 
ATOM     63  C   UNL     1       5.986  14.159  42.770  0.00  0.00    +0.000 C 
BRANCH  60  64
ATOM     64  O   UNL     1       5.532  16.998  41.902  0.00  0.00    +0.000 OA
ATOM     65  H   UNL     1       4.909  16.479  42.450  0.00  0.00    +0.000 HD
ENDBRANCH  60  64
BRANCH  62  66
ATOM     66  O   UNL     1       6.288  15.930  44.434  0.00  0.00    +0.000 OA
ATOM     67  H   UNL     1       6.449  15.305  45.168  0.00  0.00    +0.000 HD
ENDBRANCH  62  66
BRANCH  63  68
ATOM     68  O   UNL     1       6.105  13.134  43.765  0.00  0.00    +0.000 OA
ATOM     69  H   UNL     1       6.832  13.373  44.375  0.00  0.00    +0.000 HD
ENDBRANCH  63  68
BRANCH  61  70
ATOM     70  C   UNL     1       5.523  12.548  40.822  0.00  0.00    +0.000 C 
BRANCH  70  71
ATOM     71  O   UNL     1       6.271  11.491  40.202  0.00  0.00    +0.000 OA
ATOM     72  H   UNL     1       7.080  11.877  39.810  0.00  0.00    +0.000 HD
ENDBRANCH  70  71
ENDBRANCH  61  70
ENDBRANCH  57  58
ENDBRANCH   5  57
TORSDOF 19
ENDMDL
MODEL 9
REMARK VINA RESULT:    -4.376      1.465      1.635
REMARK INTER + INTRA:         -12.235
REMARK INTER:                  -8.786
REMARK INTRA:                  -3.449
REMARK UNBOUND:                -4.278
REMARK  Name = opt73.pdb
REMARK  19 active torsions:
REMARK  status: ('A' for Active; 'I' for Inactive)
REMARK    1  A    between atoms: C_5  and  O_9
REMARK    2  A    between atoms: C_7  and  O_13
REMARK    3  A    between atoms: O_9  and  C_16
REMARK    4  A    between atoms: C_12  and  C_18
REMARK    5  A    between atoms: C_19  and  C_24
REMARK    6  A    between atoms: C_21  and  O_26
REMARK    7  A    between atoms: C_25  and  C_35
REMARK    8  A    between atoms: C_27  and  O_36
REMARK    9  A    between atoms: C_34  and  O_42
REMARK   10  A    between atoms: C_35  and  O_43
REMARK   11  A    between atoms: C_38  and  O_45
REMARK   12  A    between atoms: C_39  and  C_47
REMARK   13  A    between atoms: C_40  and  O_48
REMARK   14  A    between atoms: O_48  and  C_52
REMARK   15  A    between atoms: C_54  and  O_56
REMARK   16  A    between atoms: C_55  and  C_59
REMARK   17  A    between atoms: C_57  and  O_60
REMARK   18  A    between atoms: C_58  and  O_61
REMARK   19  A    between atoms: C_59  and  O_62
REMARK                            x       y       z     vdW  Elec       q    Type
REMARK                         _______ _______ _______ _____ _____    ______ ____
ROOT
ATOM      1  O   UNL     1       8.169  19.342  41.564  0.00  0.00    +0.000 OA
ATOM      2  C   UNL     1       8.934  18.404  41.723  0.00  0.00    +0.000 C 
ATOM      3  C   UNL     1      10.301  18.397  41.089  0.00  0.00    +0.000 A 
ATOM      4  C   UNL     1       8.489  17.152  42.442  0.00  0.00    +0.000 A 
ATOM      5  C   UNL     1      10.696  19.394  40.159  0.00  0.00    +0.000 A 
ATOM      6  C   UNL     1      11.173  17.321  41.367  0.00  0.00    +0.000 A 
ATOM      7  C   UNL     1       7.185  17.005  42.949  0.00  0.00    +0.000 A 
ATOM      8  C   UNL     1       9.394  16.093  42.605  0.00  0.00    +0.000 A 
ATOM      9  C   UNL     1      11.933  19.299  39.521  0.00  0.00    +0.000 A 
ATOM     10  C   UNL     1      12.367  17.222  40.637  0.00  0.00    +0.000 A 
ATOM     11  C   UNL     1      10.802  16.311  42.361  0.00  0.00    +0.000 C 
ATOM     12  C   UNL     1       6.808  15.836  43.604  0.00  0.00    +0.000 A 
ATOM     13  C   UNL     1       8.982  14.897  43.204  0.00  0.00    +0.000 A 
ATOM     14  C   UNL     1      12.754  18.207  39.743  0.00  0.00    +0.000 A 
ATOM     15  C   UNL     1       7.703  14.778  43.752  0.00  0.00    +0.000 A 
ENDROOT
BRANCH  11  16
ATOM     16  C   UNL     1      11.603  16.296  43.598  0.00  0.00    +0.000 C 
ATOM     17  C   UNL     1      12.404  15.099  43.774  0.00  0.00    +0.000 A 
ATOM     18  C   UNL     1      12.185  17.593  43.959  0.00  0.00    +0.000 A 
ATOM     19  C   UNL     1      13.802  15.192  43.788  0.00  0.00    +0.000 A 
ATOM     20  C   UNL     1      11.789  13.840  43.790  0.00  0.00    +0.000 A 
ATOM     21  C   UNL     1      13.566  17.788  43.819  0.00  0.00    +0.000 A 
ATOM     22  C   UNL     1      11.401  18.670  44.407  0.00  0.00    +0.000 A 
ATOM     23  C   UNL     1      14.434  16.556  43.663  0.00  0.00    +0.000 C 
ATOM     24  C   UNL     1      14.570  14.009  43.886  0.00  0.00    +0.000 A 
ATOM     25  C   UNL     1      12.554  12.671  43.732  0.00  0.00    +0.000 A 
ATOM     26  C   UNL     1      14.091  19.105  43.913  0.00  0.00    +0.000 A 
ATOM     27  C   UNL     1      11.920  19.952  44.507  0.00  0.00    +0.000 A 
ATOM     28  O   UNL     1      15.630  16.634  43.505  0.00  0.00    +0.000 OA
ATOM     29  C   UNL     1      13.941  12.770  43.822  0.00  0.00    +0.000 A 
ATOM     30  C   UNL     1      13.255  20.179  44.215  0.00  0.00    +0.000 A 
BRANCH  25  31
ATOM     31  C   UNL     1      11.912  11.330  43.507  0.00  0.00    +0.000 C 
ATOM     32  O   UNL     1      12.537  10.336  43.816  0.00  0.00    +0.000 OA
ATOM     33  O   UNL     1      10.768  11.300  43.097  0.00  0.00    +0.000 OA
ENDBRANCH  25  31
BRANCH  24  34
ATOM     34  O   UNL     1      15.937  13.991  44.055  0.00  0.00    +0.000 OA
ATOM     35  H   UNL     1      16.214  14.560  44.801  0.00  0.00    +0.000 HD
ENDBRANCH  24  34
BRANCH  26  36
ATOM     36  O   UNL     1      15.411  19.373  43.602  0.00  0.00    +0.000 OA
BRANCH  36  37
ATOM     37  C   UNL     1      16.169  20.628  43.721  0.00  0.00    +0.000 C 
ATOM     38  O   UNL     1      16.656  20.760  45.075  0.00  0.00    +0.000 OA
ATOM     39  C   UNL     1      17.441  20.497  42.843  0.00  0.00    +0.000 C 
ATOM     40  C   UNL     1      17.162  19.516  45.620  0.00  0.00    +0.000 C 
ATOM     41  C   UNL     1      18.067  19.131  43.147  0.00  0.00    +0.000 C 
ATOM     42  C   UNL     1      18.198  18.813  44.670  0.00  0.00    +0.000 C 
BRANCH  42  43
ATOM     43  O   UNL     1      17.994  17.397  44.750  0.00  0.00    +0.000 OA
ATOM     44  H   UNL     1      18.776  17.015  45.232  0.00  0.00    +0.000 HD
ENDBRANCH  42  43
BRANCH  41  45
ATOM     45  O   UNL     1      19.345  19.051  42.518  0.00  0.00    +0.000 OA
ATOM     46  H   UNL     1      19.968  18.946  43.245  0.00  0.00    +0.000 HD
ENDBRANCH  41  45
BRANCH  39  47
ATOM     47  O   UNL     1      18.443  21.507  43.088  0.00  0.00    +0.000 OA
ATOM     48  H   UNL     1      18.862  21.724  42.214  0.00  0.00    +0.000 HD
ENDBRANCH  39  47
BRANCH  40  49
ATOM     49  C   UNL     1      17.647  19.732  47.064  0.00  0.00    +0.000 C 
BRANCH  49  50
ATOM     50  O   UNL     1      18.243  21.040  47.183  0.00  0.00    +0.000 OA
ATOM     51  H   UNL     1      17.639  21.655  47.661  0.00  0.00    +0.000 HD
ENDBRANCH  49  50
ENDBRANCH  40  49
ENDBRANCH  36  37
ENDBRANCH  26  36
ENDBRANCH  11  16
BRANCH  15  52
ATOM     52  C   UNL     1       7.330  13.585  44.586  0.00  0.00    +0.000 C 
ATOM     53  O   UNL     1       7.469  12.478  44.102  0.00  0.00    +0.000 OA
ATOM     54  O   UNL     1       6.847  13.778  45.683  0.00  0.00    +0.000 OA
ENDBRANCH  15  52
BRANCH   7  55
ATOM     55  O   UNL     1       6.269  18.014  42.869  0.00  0.00    +0.000 OA
ATOM     56  H   UNL     1       6.610  18.740  43.433  0.00  0.00    +0.000 HD
ENDBRANCH   7  55
BRANCH   5  57
ATOM     57  O   UNL     1       9.859  20.458  39.815  0.00  0.00    +0.000 OA
BRANCH  57  58
ATOM     58  C   UNL     1       9.416  20.706  38.452  0.00  0.00    +0.000 C 
ATOM     59  O   UNL     1       9.601  19.535  37.617  0.00  0.00    +0.000 OA
ATOM     60  C   UNL     1       7.920  21.103  38.419  0.00  0.00    +0.000 C 
ATOM     61  C   UNL     1       8.849  18.348  38.000  0.00  0.00    +0.000 C 
ATOM     62  C   UNL     1       7.027  19.916  38.853  0.00  0.00    +0.000 C 
ATOM     63  C   UNL     1       7.328  18.661  38.000  0.00  0.00    +0.000 C 
BRANCH  60  64
ATOM     64  O   UNL     1       7.589  21.509  37.082  0.00  0.00    +0.000 OA
ATOM     65  H   UNL     1       8.027  22.367  36.911  0.00  0.00    +0.000 HD
ENDBRANCH  60  64
BRANCH  62  66
ATOM     66  O   UNL     1       5.635  20.266  38.743  0.00  0.00    +0.000 OA
ATOM     67  H   UNL     1       5.546  21.238  38.693  0.00  0.00    +0.000 HD
ENDBRANCH  62  66
BRANCH  63  68
ATOM     68  O   UNL     1       6.584  17.555  38.526  0.00  0.00    +0.000 OA
ATOM     69  H   UNL     1       5.629  17.738  38.413  0.00  0.00    +0.000 HD
ENDBRANCH  63  68
BRANCH  61  70
ATOM     70  C   UNL     1       9.209  17.227  36.998  0.00  0.00    +0.000 C 
BRANCH  70  71
ATOM     71  O   UNL     1      10.167  16.317  37.562  0.00  0.00    +0.000 OA
ATOM     72  H   UNL     1      10.099  16.367  38.536  0.00  0.00    +0.000 HD
ENDBRANCH  70  71
ENDBRANCH  61  70
ENDBRANCH  57  58
ENDBRANCH   5  57
TORSDOF 19
ENDMDL
MODEL 10
REMARK VINA RESULT:    -4.313      2.793      6.007
REMARK INTER + INTRA:         -12.120
REMARK INTER:                 -10.207
REMARK INTRA:                  -1.913
REMARK UNBOUND:                -4.278
REMARK  Name = opt73.pdb
REMARK  19 active torsions:
REMARK  status: ('A' for Active; 'I' for Inactive)
REMARK    1  A    between atoms: C_5  and  O_9
REMARK    2  A    between atoms: C_7  and  O_13
REMARK    3  A    between atoms: O_9  and  C_16
REMARK    4  A    between atoms: C_12  and  C_18
REMARK    5  A    between atoms: C_19  and  C_24
REMARK    6  A    between atoms: C_21  and  O_26
REMARK    7  A    between atoms: C_25  and  C_35
REMARK    8  A    between atoms: C_27  and  O_36
REMARK    9  A    between atoms: C_34  and  O_42
REMARK   10  A    between atoms: C_35  and  O_43
REMARK   11  A    between atoms: C_38  and  O_45
REMARK   12  A    between atoms: C_39  and  C_47
REMARK   13  A    between atoms: C_40  and  O_48
REMARK   14  A    between atoms: O_48  and  C_52
REMARK   15  A    between atoms: C_54  and  O_56
REMARK   16  A    between atoms: C_55  and  C_59
REMARK   17  A    between atoms: C_57  and  O_60
REMARK   18  A    between atoms: C_58  and  O_61
REMARK   19  A    between atoms: C_59  and  O_62
REMARK                            x       y       z     vdW  Elec       q    Type
REMARK                         _______ _______ _______ _____ _____    ______ ____
ROOT
ATOM      1  O   UNL     1      10.495  15.678  40.533  0.00  0.00    +0.000 OA
ATOM      2  C   UNL     1      11.022  15.986  41.590  0.00  0.00    +0.000 C 
ATOM      3  C   UNL     1      10.649  15.296  42.877  0.00  0.00    +0.000 A 
ATOM      4  C   UNL     1      11.964  17.164  41.674  0.00  0.00    +0.000 A 
ATOM      5  C   UNL     1       9.567  14.381  42.945  0.00  0.00    +0.000 A 
ATOM      6  C   UNL     1      11.345  15.640  44.057  0.00  0.00    +0.000 A 
ATOM      7  C   UNL     1      12.268  17.958  40.554  0.00  0.00    +0.000 A 
ATOM      8  C   UNL     1      12.552  17.489  42.905  0.00  0.00    +0.000 A 
ATOM      9  C   UNL     1       9.191  13.838  44.174  0.00  0.00    +0.000 A 
ATOM     10  C   UNL     1      10.876  15.136  45.280  0.00  0.00    +0.000 A 
ATOM     11  C   UNL     1      12.496  16.543  43.997  0.00  0.00    +0.000 C 
ATOM     12  C   UNL     1      13.139  19.038  40.668  0.00  0.00    +0.000 A 
ATOM     13  C   UNL     1      13.371  18.618  43.022  0.00  0.00    +0.000 A 
ATOM     14  C   UNL     1       9.829  14.230  45.338  0.00  0.00    +0.000 A 
ATOM     15  C   UNL     1      13.711  19.371  41.895  0.00  0.00    +0.000 A 
ENDROOT
BRANCH  11  16
ATOM     16  C   UNL     1      13.807  15.941  44.297  0.00  0.00    +0.000 C 
ATOM     17  C   UNL     1      14.079  14.715  43.570  0.00  0.00    +0.000 A 
ATOM     18  C   UNL     1      14.892  16.911  44.475  0.00  0.00    +0.000 A 
ATOM     19  C   UNL     1      15.135  14.671  42.650  0.00  0.00    +0.000 A 
ATOM     20  C   UNL     1      13.207  13.624  43.683  0.00  0.00    +0.000 A 
ATOM     21  C   UNL     1      15.880  17.025  43.486  0.00  0.00    +0.000 A 
ATOM     22  C   UNL     1      14.962  17.765  45.588  0.00  0.00    +0.000 A 
ATOM     23  C   UNL     1      15.992  15.900  42.477  0.00  0.00    +0.000 C 
ATOM     24  C   UNL     1      15.343  13.493  41.896  0.00  0.00    +0.000 A 
ATOM     25  C   UNL     1      13.324  12.525  42.827  0.00  0.00    +0.000 A 
ATOM     26  C   UNL     1      16.772  18.130  43.525  0.00  0.00    +0.000 A 
ATOM     27  C   UNL     1      15.842  18.837  45.626  0.00  0.00    +0.000 A 
ATOM     28  O   UNL     1      16.793  15.932  41.573  0.00  0.00    +0.000 OA
ATOM     29  C   UNL     1      14.419  12.455  41.969  0.00  0.00    +0.000 A 
ATOM     30  C   UNL     1      16.716  19.047  44.573  0.00  0.00    +0.000 A 
BRANCH  25  31
ATOM     31  C   UNL     1      12.260  11.463  42.773  0.00  0.00    +0.000 C 
ATOM     32  O   UNL     1      12.259  10.610  43.636  0.00  0.00    +0.000 OA
ATOM     33  O   UNL     1      11.404  11.548  41.914  0.00  0.00    +0.000 OA
ENDBRANCH  25  31
BRANCH  24  34
ATOM     34  O   UNL     1      16.429  13.286  41.076  0.00  0.00    +0.000 OA
ATOM     35  H   UNL     1      17.240  13.106  41.592  0.00  0.00    +0.000 HD
ENDBRANCH  24  34
BRANCH  26  36
ATOM     36  O   UNL     1      17.639  18.386  42.479  0.00  0.00    +0.000 OA
BRANCH  36  37
ATOM     37  C   UNL     1      19.009  18.920  42.503  0.00  0.00    +0.000 C 
ATOM     38  O   UNL     1      19.926  17.891  42.068  0.00  0.00    +0.000 OA
ATOM     39  C   UNL     1      19.103  20.029  41.423  0.00  0.00    +0.000 C 
ATOM     40  C   UNL     1      19.430  17.130  40.938  0.00  0.00    +0.000 C 
ATOM     41  C   UNL     1      18.461  19.478  40.145  0.00  0.00    +0.000 C 
ATOM     42  C   UNL     1      18.941  18.043  39.756  0.00  0.00    +0.000 C 
BRANCH  42  43
ATOM     43  O   UNL     1      17.785  17.437  39.166  0.00  0.00    +0.000 OA
ATOM     44  H   UNL     1      17.839  17.597  38.187  0.00  0.00    +0.000 HD
ENDBRANCH  42  43
BRANCH  41  45
ATOM     45  O   UNL     1      18.707  20.384  39.070  0.00  0.00    +0.000 OA
ATOM     46  H   UNL     1      18.173  20.048  38.341  0.00  0.00    +0.000 HD
ENDBRANCH  41  45
BRANCH  39  47
ATOM     47  O   UNL     1      20.450  20.439  41.102  0.00  0.00    +0.000 OA
ATOM     48  H   UNL     1      20.385  21.142  40.404  0.00  0.00    +0.000 HD
ENDBRANCH  39  47
BRANCH  40  49
ATOM     49  C   UNL     1      20.450  16.048  40.544  0.00  0.00    +0.000 C 
BRANCH  49  50
ATOM     50  O   UNL     1      20.227  15.650  39.175  0.00  0.00    +0.000 OA
ATOM     51  H   UNL     1      19.263  15.573  38.988  0.00  0.00    +0.000 HD
ENDBRANCH  49  50
ENDBRANCH  40  49
ENDBRANCH  36  37
ENDBRANCH  26  36
ENDBRANCH  11  16
BRANCH  15  52
ATOM     52  C   UNL     1      14.757  20.446  41.973  0.00  0.00    +0.000 C 
ATOM     53  O   UNL     1      14.739  21.199  42.927  0.00  0.00    +0.000 OA
ATOM     54  O   UNL     1      15.539  20.556  41.051  0.00  0.00    +0.000 OA
ENDBRANCH  15  52
BRANCH   7  55
ATOM     55  O   UNL     1      11.772  17.668  39.316  0.00  0.00    +0.000 OA
ATOM     56  H   UNL     1      11.503  16.726  39.341  0.00  0.00    +0.000 HD
ENDBRANCH   7  55
BRANCH   5  57
ATOM     57  O   UNL     1       8.817  14.036  41.818  0.00  0.00    +0.000 OA
BRANCH  57  58
ATOM     58  C   UNL     1       7.470  13.496  41.900  0.00  0.00    +0.000 C 
ATOM     59  O   UNL     1       6.723  14.106  42.983  0.00  0.00    +0.000 OA
ATOM     60  C   UNL     1       6.698  13.727  40.578  0.00  0.00    +0.000 C 
ATOM     61  C   UNL     1       6.499  15.542  42.880  0.00  0.00    +0.000 C 
ATOM     62  C   UNL     1       6.443  15.237  40.349  0.00  0.00    +0.000 C 
ATOM     63  C   UNL     1       5.732  15.866  41.570  0.00  0.00    +0.000 C 
BRANCH  60  64
ATOM     64  O   UNL     1       5.450  13.020  40.653  0.00  0.00    +0.000 OA
ATOM     65  H   UNL     1       5.209  12.741  39.747  0.00  0.00    +0.000 HD
ENDBRANCH  60  64
BRANCH  62  66
ATOM     66  O   UNL     1       5.655  15.439  39.161  0.00  0.00    +0.000 OA
ATOM     67  H   UNL     1       5.017  14.706  39.063  0.00  0.00    +0.000 HD
ENDBRANCH  62  66
BRANCH  63  68
ATOM     68  O   UNL     1       5.643  17.283  41.374  0.00  0.00    +0.000 OA
ATOM     69  H   UNL     1       6.090  17.731  42.121  0.00  0.00    +0.000 HD
ENDBRANCH  63  68
BRANCH  61  70
ATOM     70  C   UNL     1       5.712  15.980  44.137  0.00  0.00    +0.000 C 
BRANCH  70  71
ATOM     71  O   UNL     1       5.688  17.411  44.259  0.00  0.00    +0.000 OA
ATOM     72  H   UNL     1       4.887  17.743  43.806  0.00  0.00    +0.000 HD
ENDBRANCH  70  71
ENDBRANCH  61  70
ENDBRANCH  57  58
ENDBRANCH   5  57
TORSDOF 19
ENDMDL
MODEL 11
REMARK VINA RESULT:    -4.228      2.416      9.459
REMARK INTER + INTRA:         -11.965
REMARK INTER:                  -6.552
REMARK INTRA:                  -5.413
REMARK UNBOUND:                -4.278
REMARK  Name = opt73.pdb
REMARK  19 active torsions:
REMARK  status: ('A' for Active; 'I' for Inactive)
REMARK    1  A    between atoms: C_5  and  O_9
REMARK    2  A    between atoms: C_7  and  O_13
REMARK    3  A    between atoms: O_9  and  C_16
REMARK    4  A    between atoms: C_12  and  C_18
REMARK    5  A    between atoms: C_19  and  C_24
REMARK    6  A    between atoms: C_21  and  O_26
REMARK    7  A    between atoms: C_25  and  C_35
REMARK    8  A    between atoms: C_27  and  O_36
REMARK    9  A    between atoms: C_34  and  O_42
REMARK   10  A    between atoms: C_35  and  O_43
REMARK   11  A    between atoms: C_38  and  O_45
REMARK   12  A    between atoms: C_39  and  C_47
REMARK   13  A    between atoms: C_40  and  O_48
REMARK   14  A    between atoms: O_48  and  C_52
REMARK   15  A    between atoms: C_54  and  O_56
REMARK   16  A    between atoms: C_55  and  C_59
REMARK   17  A    between atoms: C_57  and  O_60
REMARK   18  A    between atoms: C_58  and  O_61
REMARK   19  A    between atoms: C_59  and  O_62
REMARK                            x       y       z     vdW  Elec       q    Type
REMARK                         _______ _______ _______ _____ _____    ______ ____
ROOT
ATOM      1  O   UNL     1      15.891  19.510  44.154  0.00  0.00    +0.000 OA
ATOM      2  C   UNL     1      15.300  19.592  43.089  0.00  0.00    +0.000 C 
ATOM      3  C   UNL     1      16.034  19.461  41.779  0.00  0.00    +0.000 A 
ATOM      4  C   UNL     1      13.838  19.968  43.039  0.00  0.00    +0.000 A 
ATOM      5  C   UNL     1      17.450  19.399  41.721  0.00  0.00    +0.000 A 
ATOM      6  C   UNL     1      15.289  19.489  40.579  0.00  0.00    +0.000 A 
ATOM      7  C   UNL     1      13.098  20.247  44.202  0.00  0.00    +0.000 A 
ATOM      8  C   UNL     1      13.191  20.053  41.797  0.00  0.00    +0.000 A 
ATOM      9  C   UNL     1      18.096  19.377  40.485  0.00  0.00    +0.000 A 
ATOM     10  C   UNL     1      15.985  19.552  39.362  0.00  0.00    +0.000 A 
ATOM     11  C   UNL     1      13.825  19.502  40.620  0.00  0.00    +0.000 C 
ATOM     12  C   UNL     1      11.752  20.593  44.118  0.00  0.00    +0.000 A 
ATOM     13  C   UNL     1      11.857  20.469  41.722  0.00  0.00    +0.000 A 
ATOM     14  C   UNL     1      17.367  19.474  39.312  0.00  0.00    +0.000 A 
ATOM     15  C   UNL     1      11.114  20.693  42.883  0.00  0.00    +0.000 A 
ENDROOT
BRANCH  11  16
ATOM     16  C   UNL     1      13.153  18.287  40.127  0.00  0.00    +0.000 C 
ATOM     17  C   UNL     1      12.699  17.392  41.175  0.00  0.00    +0.000 A 
ATOM     18  C   UNL     1      12.291  18.503  38.961  0.00  0.00    +0.000 A 
ATOM     19  C   UNL     1      11.329  17.149  41.338  0.00  0.00    +0.000 A 
ATOM     20  C   UNL     1      13.613  16.881  42.106  0.00  0.00    +0.000 A 
ATOM     21  C   UNL     1      10.898  18.444  39.117  0.00  0.00    +0.000 A 
ATOM     22  C   UNL     1      12.807  18.807  37.690  0.00  0.00    +0.000 A 
ATOM     23  C   UNL     1      10.363  17.799  40.380  0.00  0.00    +0.000 C 
ATOM     24  C   UNL     1      10.896  16.333  42.409  0.00  0.00    +0.000 A 
ATOM     25  C   UNL     1      13.168  16.204  43.246  0.00  0.00    +0.000 A 
ATOM     26  C   UNL     1      10.065  18.908  38.065  0.00  0.00    +0.000 A 
ATOM     27  C   UNL     1      11.988  19.249  36.662  0.00  0.00    +0.000 A 
ATOM     28  O   UNL     1       9.178  17.736  40.610  0.00  0.00    +0.000 OA
ATOM     29  C   UNL     1      11.814  15.902  43.362  0.00  0.00    +0.000 A 
ATOM     30  C   UNL     1      10.621  19.345  36.863  0.00  0.00    +0.000 A 
BRANCH  25  31
ATOM     31  C   UNL     1      14.111  15.863  44.367  0.00  0.00    +0.000 C 
ATOM     32  O   UNL     1      14.540  14.729  44.429  0.00  0.00    +0.000 OA
ATOM     33  O   UNL     1      14.464  16.753  45.116  0.00  0.00    +0.000 OA
ENDBRANCH  25  31
BRANCH  24  34
ATOM     34  O   UNL     1       9.597  15.910  42.578  0.00  0.00    +0.000 OA
ATOM     35  H   UNL     1       9.134  15.820  41.721  0.00  0.00    +0.000 HD
ENDBRANCH  24  34
BRANCH  26  36
ATOM     36  O   UNL     1       8.700  19.043  38.239  0.00  0.00    +0.000 OA
BRANCH  36  37
ATOM     37  C   UNL     1       7.625  19.091  37.237  0.00  0.00    +0.000 C 
ATOM     38  O   UNL     1       6.707  18.000  37.474  0.00  0.00    +0.000 OA
ATOM     39  C   UNL     1       6.798  20.379  37.491  0.00  0.00    +0.000 C 
ATOM     40  C   UNL     1       6.422  17.794  38.880  0.00  0.00    +0.000 C 
ATOM     41  C   UNL     1       6.519  20.452  38.996  0.00  0.00    +0.000 C 
ATOM     42  C   UNL     1       5.993  19.117  39.614  0.00  0.00    +0.000 C 
BRANCH  42  43
ATOM     43  O   UNL     1       6.549  19.100  40.934  0.00  0.00    +0.000 OA
ATOM     44  H   UNL     1       7.482  19.436  40.863  0.00  0.00    +0.000 HD
ENDBRANCH  42  43
BRANCH  41  45
ATOM     45  O   UNL     1       5.592  21.506  39.250  0.00  0.00    +0.000 OA
ATOM     46  H   UNL     1       4.738  21.151  38.979  0.00  0.00    +0.000 HD
ENDBRANCH  41  45
BRANCH  39  47
ATOM     47  O   UNL     1       5.531  20.422  36.802  0.00  0.00    +0.000 OA
ATOM     48  H   UNL     1       5.581  19.771  36.053  0.00  0.00    +0.000 HD
ENDBRANCH  39  47
BRANCH  40  49
ATOM     49  C   UNL     1       5.453  16.612  39.054  0.00  0.00    +0.000 C 
BRANCH  49  50
ATOM     50  O   UNL     1       6.191  15.437  39.447  0.00  0.00    +0.000 OA
ATOM     51  H   UNL     1       6.301  14.824  38.683  0.00  0.00    +0.000 HD
ENDBRANCH  49  50
ENDBRANCH  40  49
ENDBRANCH  36  37
ENDBRANCH  26  36
ENDBRANCH  11  16
BRANCH  15  52
ATOM     52  C   UNL     1       9.631  20.924  42.817  0.00  0.00    +0.000 C 
ATOM     53  O   UNL     1       9.081  20.828  41.737  0.00  0.00    +0.000 OA
ATOM     54  O   UNL     1       9.054  21.257  43.832  0.00  0.00    +0.000 OA
ENDBRANCH  15  52
BRANCH   7  55
ATOM     55  O   UNL     1      13.651  20.134  45.445  0.00  0.00    +0.000 OA
ATOM     56  H   UNL     1      14.295  20.867  45.527  0.00  0.00    +0.000 HD
ENDBRANCH   7  55
BRANCH   5  57
ATOM     57  O   UNL     1      18.239  19.410  42.874  0.00  0.00    +0.000 OA
BRANCH  57  58
ATOM     58  C   UNL     1      19.316  18.461  43.104  0.00  0.00    +0.000 C 
ATOM     59  O   UNL     1      19.767  18.501  44.481  0.00  0.00    +0.000 OA
ATOM     60  C   UNL     1      18.864  17.017  42.775  0.00  0.00    +0.000 C 
ATOM     61  C   UNL     1      18.782  18.136  45.491  0.00  0.00    +0.000 C 
ATOM     62  C   UNL     1      17.777  16.543  43.771  0.00  0.00    +0.000 C 
ATOM     63  C   UNL     1      18.266  16.695  45.231  0.00  0.00    +0.000 C 
BRANCH  60  64
ATOM     64  O   UNL     1      20.011  16.156  42.846  0.00  0.00    +0.000 OA
ATOM     65  H   UNL     1      20.728  16.647  43.297  0.00  0.00    +0.000 HD
ENDBRANCH  60  64
BRANCH  62  66
ATOM     66  O   UNL     1      17.420  15.173  43.510  0.00  0.00    +0.000 OA
ATOM     67  H   UNL     1      16.671  14.916  44.084  0.00  0.00    +0.000 HD
ENDBRANCH  62  66
BRANCH  63  68
ATOM     68  O   UNL     1      17.184  16.378  46.115  0.00  0.00    +0.000 OA
ATOM     69  H   UNL     1      16.354  16.732  45.734  0.00  0.00    +0.000 HD
ENDBRANCH  63  68
BRANCH  61  70
ATOM     70  C   UNL     1      19.463  18.267  46.873  0.00  0.00    +0.000 C 
BRANCH  70  71
ATOM     71  O   UNL     1      18.490  18.301  47.928  0.00  0.00    +0.000 OA
ATOM     72  H   UNL     1      17.881  17.546  47.807  0.00  0.00    +0.000 HD
ENDBRANCH  70  71
ENDBRANCH  61  70
ENDBRANCH  57  58
ENDBRANCH   5  57
TORSDOF 19
ENDMDL
MODEL 12
REMARK VINA RESULT:    -4.165      2.344      8.823
REMARK INTER + INTRA:         -11.851
REMARK INTER:                  -7.158
REMARK INTRA:                  -4.693
REMARK UNBOUND:                -4.278
REMARK  Name = opt73.pdb
REMARK  19 active torsions:
REMARK  status: ('A' for Active; 'I' for Inactive)
REMARK    1  A    between atoms: C_5  and  O_9
REMARK    2  A    between atoms: C_7  and  O_13
REMARK    3  A    between atoms: O_9  and  C_16
REMARK    4  A    between atoms: C_12  and  C_18
REMARK    5  A    between atoms: C_19  and  C_24
REMARK    6  A    between atoms: C_21  and  O_26
REMARK    7  A    between atoms: C_25  and  C_35
REMARK    8  A    between atoms: C_27  and  O_36
REMARK    9  A    between atoms: C_34  and  O_42
REMARK   10  A    between atoms: C_35  and  O_43
REMARK   11  A    between atoms: C_38  and  O_45
REMARK   12  A    between atoms: C_39  and  C_47
REMARK   13  A    between atoms: C_40  and  O_48
REMARK   14  A    between atoms: O_48  and  C_52
REMARK   15  A    between atoms: C_54  and  O_56
REMARK   16  A    between atoms: C_55  and  C_59
REMARK   17  A    between atoms: C_57  and  O_60
REMARK   18  A    between atoms: C_58  and  O_61
REMARK   19  A    between atoms: C_59  and  O_62
REMARK                            x       y       z     vdW  Elec       q    Type
REMARK                         _______ _______ _______ _____ _____    ______ ____
ROOT
ATOM      1  O   UNL     1      11.397  17.031  44.416  0.00  0.00    +0.000 OA
ATOM      2  C   UNL     1      11.968  17.359  43.387  0.00  0.00    +0.000 C 
ATOM      3  C   UNL     1      11.375  17.053  42.036  0.00  0.00    +0.000 A 
ATOM      4  C   UNL     1      13.356  17.954  43.424  0.00  0.00    +0.000 A 
ATOM      5  C   UNL     1      10.220  16.240  41.896  0.00  0.00    +0.000 A 
ATOM      6  C   UNL     1      12.041  17.520  40.881  0.00  0.00    +0.000 A 
ATOM      7  C   UNL     1      14.052  18.151  44.631  0.00  0.00    +0.000 A 
ATOM      8  C   UNL     1      13.981  18.318  42.223  0.00  0.00    +0.000 A 
ATOM      9  C   UNL     1       9.759  15.900  40.624  0.00  0.00    +0.000 A 
ATOM     10  C   UNL     1      11.591  17.081  39.626  0.00  0.00    +0.000 A 
ATOM     11  C   UNL     1      13.203  18.402  41.007  0.00  0.00    +0.000 C 
ATOM     12  C   UNL     1      15.331  18.700  44.628  0.00  0.00    +0.000 A 
ATOM     13  C   UNL     1      15.294  18.805  42.228  0.00  0.00    +0.000 A 
ATOM     14  C   UNL     1      10.454  16.301  39.496  0.00  0.00    +0.000 A 
ATOM     15  C   UNL     1      15.959  19.047  43.433  0.00  0.00    +0.000 A 
ENDROOT
BRANCH  11  16
ATOM     16  C   UNL     1      13.018  19.788  40.545  0.00  0.00    +0.000 C 
ATOM     17  C   UNL     1      13.247  19.978  39.125  0.00  0.00    +0.000 A 
ATOM     18  C   UNL     1      11.900  20.493  41.179  0.00  0.00    +0.000 A 
ATOM     19  C   UNL     1      12.192  20.379  38.296  0.00  0.00    +0.000 A 
ATOM     20  C   UNL     1      14.482  19.628  38.561  0.00  0.00    +0.000 A 
ATOM     21  C   UNL     1      10.744  20.761  40.430  0.00  0.00    +0.000 A 
ATOM     22  C   UNL     1      11.924  20.883  42.529  0.00  0.00    +0.000 A 
ATOM     23  C   UNL     1      10.846  20.647  38.922  0.00  0.00    +0.000 C 
ATOM     24  C   UNL     1      12.412  20.488  36.904  0.00  0.00    +0.000 A 
ATOM     25  C   UNL     1      14.648  19.590  37.173  0.00  0.00    +0.000 A 
ATOM     26  C   UNL     1       9.572  21.200  41.102  0.00  0.00    +0.000 A 
ATOM     27  C   UNL     1      10.779  21.321  43.178  0.00  0.00    +0.000 A 
ATOM     28  O   UNL     1       9.892  20.828  38.203  0.00  0.00    +0.000 OA
ATOM     29  C   UNL     1      13.620  20.062  36.360  0.00  0.00    +0.000 A 
ATOM     30  C   UNL     1       9.591  21.435  42.475  0.00  0.00    +0.000 A 
BRANCH  25  31
ATOM     31  C   UNL     1      15.880  18.991  36.552  0.00  0.00    +0.000 C 
ATOM     32  O   UNL     1      16.844  19.709  36.386  0.00  0.00    +0.000 OA
ATOM     33  O   UNL     1      15.884  17.799  36.314  0.00  0.00    +0.000 OA
ENDBRANCH  25  31
BRANCH  24  34
ATOM     34  O   UNL     1      11.496  21.011  36.018  0.00  0.00    +0.000 OA
ATOM     35  H   UNL     1      11.853  21.042  35.108  0.00  0.00    +0.000 HD
ENDBRANCH  24  34
BRANCH  26  36
ATOM     36  O   UNL     1       8.362  21.299  40.439  0.00  0.00    +0.000 OA
BRANCH  36  37
ATOM     37  C   UNL     1       6.992  21.230  40.969  0.00  0.00    +0.000 C 
ATOM     38  O   UNL     1       6.058  21.226  39.866  0.00  0.00    +0.000 OA
ATOM     39  C   UNL     1       6.818  19.848  41.652  0.00  0.00    +0.000 C 
ATOM     40  C   UNL     1       6.486  20.389  38.763  0.00  0.00    +0.000 C 
ATOM     41  C   UNL     1       7.381  18.792  40.695  0.00  0.00    +0.000 C 
ATOM     42  C   UNL     1       6.889  18.940  39.220  0.00  0.00    +0.000 C 
BRANCH  42  43
ATOM     43  O   UNL     1       8.010  18.515  38.434  0.00  0.00    +0.000 OA
ATOM     44  H   UNL     1       7.923  18.948  37.543  0.00  0.00    +0.000 HD
ENDBRANCH  42  43
BRANCH  41  45
ATOM     45  O   UNL     1       7.058  17.493  41.190  0.00  0.00    +0.000 OA
ATOM     46  H   UNL     1       6.146  17.566  41.491  0.00  0.00    +0.000 HD
ENDBRANCH  41  45
BRANCH  39  47
ATOM     47  O   UNL     1       5.450  19.496  41.948  0.00  0.00    +0.000 OA
ATOM     48  H   UNL     1       5.128  20.126  42.645  0.00  0.00    +0.000 HD
ENDBRANCH  39  47
BRANCH  40  49
ATOM     49  C   UNL     1       5.452  20.447  37.625  0.00  0.00    +0.000 C 
BRANCH  49  50
ATOM     50  O   UNL     1       6.023  19.885  36.425  0.00  0.00    +0.000 OA
ATOM     51  H   UNL     1       5.582  19.034  36.196  0.00  0.00    +0.000 HD
ENDBRANCH  49  50
ENDBRANCH  40  49
ENDBRANCH  36  37
ENDBRANCH  26  36
ENDBRANCH  11  16
BRANCH  15  52
ATOM     52  C   UNL     1      17.275  19.770  43.454  0.00  0.00    +0.000 C 
ATOM     53  O   UNL     1      17.353  20.806  44.087  0.00  0.00    +0.000 OA
ATOM     54  O   UNL     1      18.188  19.325  42.789  0.00  0.00    +0.000 OA
ENDBRANCH  15  52
BRANCH   7  55
ATOM     55  O   UNL     1      13.483  17.867  45.839  0.00  0.00    +0.000 OA
ATOM     56  H   UNL     1      14.007  17.134  46.224  0.00  0.00    +0.000 HD
ENDBRANCH   7  55
BRANCH   5  57
ATOM     57  O   UNL     1       9.546  15.716  43.000  0.00  0.00    +0.000 OA
BRANCH  57  58
ATOM     58  C   UNL     1       9.710  14.342  43.449  0.00  0.00    +0.000 C 
ATOM     59  O   UNL     1       8.900  14.071  44.622  0.00  0.00    +0.000 OA
ATOM     60  C   UNL     1       9.314  13.343  42.335  0.00  0.00    +0.000 C 
ATOM     61  C   UNL     1       7.459  14.194  44.449  0.00  0.00    +0.000 C 
ATOM     62  C   UNL     1       7.796  13.423  42.041  0.00  0.00    +0.000 C 
ATOM     63  C   UNL     1       6.974  13.225  43.337  0.00  0.00    +0.000 C 
BRANCH  60  64
ATOM     64  O   UNL     1       9.666  12.020  42.768  0.00  0.00    +0.000 OA
ATOM     65  H   UNL     1      10.616  12.024  43.004  0.00  0.00    +0.000 HD
ENDBRANCH  60  64
BRANCH  62  66
ATOM     66  O   UNL     1       7.421  12.435  41.063  0.00  0.00    +0.000 OA
ATOM     67  H   UNL     1       7.118  11.624  41.517  0.00  0.00    +0.000 HD
ENDBRANCH  62  66
BRANCH  63  68
ATOM     68  O   UNL     1       5.589  13.445  43.043  0.00  0.00    +0.000 OA
ATOM     69  H   UNL     1       5.492  13.583  42.079  0.00  0.00    +0.000 HD
ENDBRANCH  63  68
BRANCH  61  70
ATOM     70  C   UNL     1       6.800  13.886  45.813  0.00  0.00    +0.000 C 
BRANCH  70  71
ATOM     71  O   UNL     1       5.599  14.653  45.993  0.00  0.00    +0.000 OA
ATOM     72  H   UNL     1       5.169  14.756  45.121  0.00  0.00    +0.000 HD
ENDBRANCH  70  71
ENDBRANCH  61  70
ENDBRANCH  57  58
ENDBRANCH   5  57
TORSDOF 19
ENDMDL
MODEL 13
REMARK VINA RESULT:    -4.072      2.612      9.945
REMARK INTER + INTRA:         -11.683
REMARK INTER:                  -8.234
REMARK INTRA:                  -3.449
REMARK UNBOUND:                -4.278
REMARK  Name = opt73.pdb
REMARK  19 active torsions:
REMARK  status: ('A' for Active; 'I' for Inactive)
REMARK    1  A    between atoms: C_5  and  O_9
REMARK    2  A    between atoms: C_7  and  O_13
REMARK    3  A    between atoms: O_9  and  C_16
REMARK    4  A    between atoms: C_12  and  C_18
REMARK    5  A    between atoms: C_19  and  C_24
REMARK    6  A    between atoms: C_21  and  O_26
REMARK    7  A    between atoms: C_25  and  C_35
REMARK    8  A    between atoms: C_27  and  O_36
REMARK    9  A    between atoms: C_34  and  O_42
REMARK   10  A    between atoms: C_35  and  O_43
REMARK   11  A    between atoms: C_38  and  O_45
REMARK   12  A    between atoms: C_39  and  C_47
REMARK   13  A    between atoms: C_40  and  O_48
REMARK   14  A    between atoms: O_48  and  C_52
REMARK   15  A    between atoms: C_54  and  O_56
REMARK   16  A    between atoms: C_55  and  C_59
REMARK   17  A    between atoms: C_57  and  O_60
REMARK   18  A    between atoms: C_58  and  O_61
REMARK   19  A    between atoms: C_59  and  O_62
REMARK                            x       y       z     vdW  Elec       q    Type
REMARK                         _______ _______ _______ _____ _____    ______ ____
ROOT
ATOM      1  O   UNL     1      17.231  19.049  42.233  0.00  0.00    +0.000 OA
ATOM      2  C   UNL     1      16.365  18.189  42.254  0.00  0.00    +0.000 C 
ATOM      3  C   UNL     1      16.628  16.835  42.862  0.00  0.00    +0.000 A 
ATOM      4  C   UNL     1      15.047  18.395  41.545  0.00  0.00    +0.000 A 
ATOM      5  C   UNL     1      17.924  16.448  43.289  0.00  0.00    +0.000 A 
ATOM      6  C   UNL     1      15.567  15.903  42.926  0.00  0.00    +0.000 A 
ATOM      7  C   UNL     1      14.760  19.571  40.829  0.00  0.00    +0.000 A 
ATOM      8  C   UNL     1      14.076  17.384  41.589  0.00  0.00    +0.000 A 
ATOM      9  C   UNL     1      18.145  15.153  43.757  0.00  0.00    +0.000 A 
ATOM     10  C   UNL     1      15.856  14.588  43.321  0.00  0.00    +0.000 A 
ATOM     11  C   UNL     1      14.213  16.301  42.537  0.00  0.00    +0.000 C 
ATOM     12  C   UNL     1      13.535  19.726  40.186  0.00  0.00    +0.000 A 
ATOM     13  C   UNL     1      12.877  17.524  40.881  0.00  0.00    +0.000 A 
ATOM     14  C   UNL     1      17.121  14.222  43.752  0.00  0.00    +0.000 A 
ATOM     15  C   UNL     1      12.577  18.715  40.216  0.00  0.00    +0.000 A 
ENDROOT
BRANCH  11  16
ATOM     16  C   UNL     1      13.221  16.368  43.625  0.00  0.00    +0.000 C 
ATOM     17  C   UNL     1      12.789  17.713  43.954  0.00  0.00    +0.000 A 
ATOM     18  C   UNL     1      12.224  15.293  43.602  0.00  0.00    +0.000 A 
ATOM     19  C   UNL     1      11.452  18.083  43.756  0.00  0.00    +0.000 A 
ATOM     20  C   UNL     1      13.730  18.678  44.337  0.00  0.00    +0.000 A 
ATOM     21  C   UNL     1      10.903  15.589  43.235  0.00  0.00    +0.000 A 
ATOM     22  C   UNL     1      12.550  13.959  43.900  0.00  0.00    +0.000 A 
ATOM     23  C   UNL     1      10.486  17.046  43.243  0.00  0.00    +0.000 C 
ATOM     24  C   UNL     1      11.062  19.418  44.012  0.00  0.00    +0.000 A 
ATOM     25  C   UNL     1      13.370  20.026  44.439  0.00  0.00    +0.000 A 
ATOM     26  C   UNL     1      10.008  14.522  42.958  0.00  0.00    +0.000 A 
ATOM     27  C   UNL     1      11.668  12.921  43.637  0.00  0.00    +0.000 A 
ATOM     28  O   UNL     1       9.377  17.393  42.910  0.00  0.00    +0.000 OA
ATOM     29  C   UNL     1      12.027  20.374  44.315  0.00  0.00    +0.000 A 
ATOM     30  C   UNL     1      10.413  13.198  43.122  0.00  0.00    +0.000 A 
BRANCH  25  31
ATOM     31  C   UNL     1      14.409  21.099  44.611  0.00  0.00    +0.000 C 
ATOM     32  O   UNL     1      14.672  21.466  45.738  0.00  0.00    +0.000 OA
ATOM     33  O   UNL     1      14.996  21.498  43.624  0.00  0.00    +0.000 OA
ENDBRANCH  25  31
BRANCH  24  34
ATOM     34  O   UNL     1       9.756  19.855  43.993  0.00  0.00    +0.000 OA
ATOM     35  H   UNL     1       9.170  19.216  43.541  0.00  0.00    +0.000 HD
ENDBRANCH  24  34
BRANCH  26  36
ATOM     36  O   UNL     1       8.757  14.759  42.418  0.00  0.00    +0.000 OA
BRANCH  36  37
ATOM     37  C   UNL     1       7.721  13.807  41.992  0.00  0.00    +0.000 C 
ATOM     38  O   UNL     1       6.868  13.501  43.117  0.00  0.00    +0.000 OA
ATOM     39  C   UNL     1       6.803  14.531  40.972  0.00  0.00    +0.000 C 
ATOM     40  C   UNL     1       6.542  14.666  43.916  0.00  0.00    +0.000 C 
ATOM     41  C   UNL     1       6.461  15.904  41.561  0.00  0.00    +0.000 C 
ATOM     42  C   UNL     1       6.000  15.863  43.053  0.00  0.00    +0.000 C 
BRANCH  42  43
ATOM     43  O   UNL     1       6.504  17.083  43.608  0.00  0.00    +0.000 OA
ATOM     44  H   UNL     1       7.212  17.414  42.993  0.00  0.00    +0.000 HD
ENDBRANCH  42  43
BRANCH  41  45
ATOM     45  O   UNL     1       5.458  16.522  40.756  0.00  0.00    +0.000 OA
ATOM     46  H   UNL     1       5.481  17.451  41.008  0.00  0.00    +0.000 HD
ENDBRANCH  41  45
BRANCH  39  47
ATOM     47  O   UNL     1       5.563  13.847  40.693  0.00  0.00    +0.000 OA
ATOM     48  H   UNL     1       5.227  13.484  41.554  0.00  0.00    +0.000 HD
ENDBRANCH  39  47
BRANCH  40  49
ATOM     49  C   UNL     1       5.647  14.261  45.099  0.00  0.00    +0.000 C 
BRANCH  49  50
ATOM     50  O   UNL     1       5.496  15.380  45.996  0.00  0.00    +0.000 OA
ATOM     51  H   UNL     1       5.549  15.082  46.935  0.00  0.00    +0.000 HD
ENDBRANCH  49  50
ENDBRANCH  40  49
ENDBRANCH  36  37
ENDBRANCH  26  36
ENDBRANCH  11  16
BRANCH  15  52
ATOM     52  C   UNL     1      11.209  18.954  39.643  0.00  0.00    +0.000 C 
ATOM     53  O   UNL     1      11.090  18.995  38.433  0.00  0.00    +0.000 OA
ATOM     54  O   UNL     1      10.291  19.159  40.410  0.00  0.00    +0.000 OA
ENDBRANCH  15  52
BRANCH   7  55
ATOM     55  O   UNL     1      15.639  20.615  40.787  0.00  0.00    +0.000 OA
ATOM     56  H   UNL     1      15.199  21.363  41.241  0.00  0.00    +0.000 HD
ENDBRANCH   7  55
BRANCH   5  57
ATOM     57  O   UNL     1      19.018  17.313  43.210  0.00  0.00    +0.000 OA
BRANCH  57  58
ATOM     58  C   UNL     1      19.817  17.685  44.367  0.00  0.00    +0.000 C 
ATOM     59  O   UNL     1      19.746  19.111  44.620  0.00  0.00    +0.000 OA
ATOM     60  C   UNL     1      19.341  16.935  45.635  0.00  0.00    +0.000 C 
ATOM     61  C   UNL     1      18.428  19.641  44.944  0.00  0.00    +0.000 C 
ATOM     62  C   UNL     1      17.921  17.396  46.044  0.00  0.00    +0.000 C 
ATOM     63  C   UNL     1      17.868  18.933  46.208  0.00  0.00    +0.000 C 
BRANCH  60  64
ATOM     64  O   UNL     1      20.272  17.201  46.694  0.00  0.00    +0.000 OA
ATOM     65  H   UNL     1      20.690  18.068  46.517  0.00  0.00    +0.000 HD
ENDBRANCH  60  64
BRANCH  62  66
ATOM     66  O   UNL     1      17.517  16.755  47.268  0.00  0.00    +0.000 OA
ATOM     67  H   UNL     1      18.097  17.050  47.998  0.00  0.00    +0.000 HD
ENDBRANCH  62  66
BRANCH  63  68
ATOM     68  O   UNL     1      16.511  19.326  46.447  0.00  0.00    +0.000 OA
ATOM     69  H   UNL     1      16.442  19.675  47.359  0.00  0.00    +0.000 HD
ENDBRANCH  63  68
BRANCH  61  70
ATOM     70  C   UNL     1      18.579  21.165  45.152  0.00  0.00    +0.000 C 
BRANCH  70  71
ATOM     71  O   UNL     1      18.478  21.510  46.542  0.00  0.00    +0.000 OA
ATOM     72  H   UNL     1      18.255  22.460  46.607  0.00  0.00    +0.000 HD
ENDBRANCH  70  71
ENDBRANCH  61  70
ENDBRANCH  57  58
ENDBRANCH   5  57
TORSDOF 19
ENDMDL
MODEL 14
REMARK VINA RESULT:    -3.786      2.507      5.247
REMARK INTER + INTRA:         -11.162
REMARK INTER:                  -7.011
REMARK INTRA:                  -4.150
REMARK UNBOUND:                -4.278
REMARK  Name = opt73.pdb
REMARK  19 active torsions:
REMARK  status: ('A' for Active; 'I' for Inactive)
REMARK    1  A    between atoms: C_5  and  O_9
REMARK    2  A    between atoms: C_7  and  O_13
REMARK    3  A    between atoms: O_9  and  C_16
REMARK    4  A    between atoms: C_12  and  C_18
REMARK    5  A    between atoms: C_19  and  C_24
REMARK    6  A    between atoms: C_21  and  O_26
REMARK    7  A    between atoms: C_25  and  C_35
REMARK    8  A    between atoms: C_27  and  O_36
REMARK    9  A    between atoms: C_34  and  O_42
REMARK   10  A    between atoms: C_35  and  O_43
REMARK   11  A    between atoms: C_38  and  O_45
REMARK   12  A    between atoms: C_39  and  C_47
REMARK   13  A    between atoms: C_40  and  O_48
REMARK   14  A    between atoms: O_48  and  C_52
REMARK   15  A    between atoms: C_54  and  O_56
REMARK   16  A    between atoms: C_55  and  C_59
REMARK   17  A    between atoms: C_57  and  O_60
REMARK   18  A    between atoms: C_58  and  O_61
REMARK   19  A    between atoms: C_59  and  O_62
REMARK                            x       y       z     vdW  Elec       q    Type
REMARK                         _______ _______ _______ _____ _____    ______ ____
ROOT
ATOM      1  O   UNL     1       8.808  18.721  40.310  0.00  0.00    +0.000 OA
ATOM      2  C   UNL     1      10.012  18.676  40.114  0.00  0.00    +0.000 C 
ATOM      3  C   UNL     1      10.638  19.387  38.942  0.00  0.00    +0.000 A 
ATOM      4  C   UNL     1      10.903  17.791  40.954  0.00  0.00    +0.000 A 
ATOM      5  C   UNL     1       9.849  20.000  37.935  0.00  0.00    +0.000 A 
ATOM      6  C   UNL     1      12.044  19.363  38.806  0.00  0.00    +0.000 A 
ATOM      7  C   UNL     1      10.393  16.980  41.984  0.00  0.00    +0.000 A 
ATOM      8  C   UNL     1      12.282  17.763  40.700  0.00  0.00    +0.000 A 
ATOM      9  C   UNL     1      10.463  20.563  36.816  0.00  0.00    +0.000 A 
ATOM     10  C   UNL     1      12.610  19.864  37.624  0.00  0.00    +0.000 A 
ATOM     11  C   UNL     1      12.876  18.779  39.860  0.00  0.00    +0.000 C 
ATOM     12  C   UNL     1      11.243  16.175  42.736  0.00  0.00    +0.000 A 
ATOM     13  C   UNL     1      13.116  16.898  41.417  0.00  0.00    +0.000 A 
ATOM     14  C   UNL     1      11.834  20.477  36.652  0.00  0.00    +0.000 A 
ATOM     15  C   UNL     1      12.611  16.135  42.474  0.00  0.00    +0.000 A 
ENDROOT
BRANCH  11  16
ATOM     16  C   UNL     1      13.718  19.722  40.616  0.00  0.00    +0.000 C 
ATOM     17  C   UNL     1      13.244  19.998  41.959  0.00  0.00    +0.000 A 
ATOM     18  C   UNL     1      15.158  19.557  40.397  0.00  0.00    +0.000 A 
ATOM     19  C   UNL     1      14.021  19.623  43.063  0.00  0.00    +0.000 A 
ATOM     20  C   UNL     1      11.955  20.511  42.157  0.00  0.00    +0.000 A 
ATOM     21  C   UNL     1      15.951  19.016  41.419  0.00  0.00    +0.000 A 
ATOM     22  C   UNL     1      15.776  19.888  39.179  0.00  0.00    +0.000 A 
ATOM     23  C   UNL     1      15.361  18.977  42.814  0.00  0.00    +0.000 C 
ATOM     24  C   UNL     1      13.514  19.832  44.366  0.00  0.00    +0.000 A 
ATOM     25  C   UNL     1      11.399  20.572  43.438  0.00  0.00    +0.000 A 
ATOM     26  C   UNL     1      17.281  18.613  41.123  0.00  0.00    +0.000 A 
ATOM     27  C   UNL     1      17.078  19.502  38.897  0.00  0.00    +0.000 A 
ATOM     28  O   UNL     1      15.962  18.498  43.748  0.00  0.00    +0.000 OA
ATOM     29  C   UNL     1      12.203  20.269  44.535  0.00  0.00    +0.000 A 
ATOM     30  C   UNL     1      17.816  18.823  39.853  0.00  0.00    +0.000 A 
BRANCH  25  31
ATOM     31  C   UNL     1       9.944  20.891  43.642  0.00  0.00    +0.000 C 
ATOM     32  O   UNL     1       9.144  20.452  42.840  0.00  0.00    +0.000 OA
ATOM     33  O   UNL     1       9.622  21.508  44.638  0.00  0.00    +0.000 OA
ENDBRANCH  25  31
BRANCH  24  34
ATOM     34  O   UNL     1      14.245  19.638  45.517  0.00  0.00    +0.000 OA
ATOM     35  H   UNL     1      13.976  20.260  46.222  0.00  0.00    +0.000 HD
ENDBRANCH  24  34
BRANCH  26  36
ATOM     36  O   UNL     1      18.037  17.910  42.042  0.00  0.00    +0.000 OA
BRANCH  36  37
ATOM     37  C   UNL     1      19.148  16.972  41.824  0.00  0.00    +0.000 C 
ATOM     38  O   UNL     1      19.915  16.853  43.043  0.00  0.00    +0.000 OA
ATOM     39  C   UNL     1      18.540  15.564  41.589  0.00  0.00    +0.000 C 
ATOM     40  C   UNL     1      19.085  16.781  44.230  0.00  0.00    +0.000 C 
ATOM     41  C   UNL     1      17.479  15.339  42.672  0.00  0.00    +0.000 C 
ATOM     42  C   UNL     1      17.956  15.693  44.117  0.00  0.00    +0.000 C 
BRANCH  42  43
ATOM     43  O   UNL     1      16.779  16.198  44.759  0.00  0.00    +0.000 OA
ATOM     44  H   UNL     1      17.077  16.853  45.445  0.00  0.00    +0.000 HD
ENDBRANCH  42  43
BRANCH  41  45
ATOM     45  O   UNL     1      17.039  13.983  42.621  0.00  0.00    +0.000 OA
ATOM     46  H   UNL     1      17.830  13.462  42.798  0.00  0.00    +0.000 HD
ENDBRANCH  41  45
BRANCH  39  47
ATOM     47  O   UNL     1      19.491  14.481  41.668  0.00  0.00    +0.000 OA
ATOM     48  H   UNL     1      19.118  13.723  41.146  0.00  0.00    +0.000 HD
ENDBRANCH  39  47
BRANCH  40  49
ATOM     49  C   UNL     1      19.969  16.672  45.484  0.00  0.00    +0.000 C 
BRANCH  49  50
ATOM     50  O   UNL     1      19.481  17.574  46.498  0.00  0.00    +0.000 OA
ATOM     51  H   UNL     1      19.517  17.150  47.387  0.00  0.00    +0.000 HD
ENDBRANCH  49  50
ENDBRANCH  40  49
ENDBRANCH  36  37
ENDBRANCH  26  36
ENDBRANCH  11  16
BRANCH  15  52
ATOM     52  C   UNL     1      13.533  15.375  43.384  0.00  0.00    +0.000 C 
ATOM     53  O   UNL     1      13.804  15.860  44.466  0.00  0.00    +0.000 OA
ATOM     54  O   UNL     1      14.019  14.339  42.979  0.00  0.00    +0.000 OA
ENDBRANCH  15  52
BRANCH   7  55
ATOM     55  O   UNL     1       9.070  16.996  42.318  0.00  0.00    +0.000 OA
ATOM     56  H   UNL     1       8.743  17.896  42.106  0.00  0.00    +0.000 HD
ENDBRANCH   7  55
BRANCH   5  57
ATOM     57  O   UNL     1       8.453  20.018  37.996  0.00  0.00    +0.000 OA
BRANCH  57  58
ATOM     58  C   UNL     1       7.608  19.582  36.897  0.00  0.00    +0.000 C 
ATOM     59  O   UNL     1       8.306  18.647  36.035  0.00  0.00    +0.000 OA
ATOM     60  C   UNL     1       6.321  18.901  37.422  0.00  0.00    +0.000 C 
ATOM     61  C   UNL     1       8.722  17.394  36.651  0.00  0.00    +0.000 C 
ATOM     62  C   UNL     1       6.657  17.571  38.138  0.00  0.00    +0.000 C 
ATOM     63  C   UNL     1       7.485  16.644  37.215  0.00  0.00    +0.000 C 
BRANCH  60  64
ATOM     64  O   UNL     1       5.450  18.658  36.307  0.00  0.00    +0.000 OA
ATOM     65  H   UNL     1       5.885  19.010  35.504  0.00  0.00    +0.000 HD
ENDBRANCH  60  64
BRANCH  62  66
ATOM     66  O   UNL     1       5.450  16.903  38.552  0.00  0.00    +0.000 OA
ATOM     67  H   UNL     1       4.714  17.545  38.577  0.00  0.00    +0.000 HD
ENDBRANCH  62  66
BRANCH  63  68
ATOM     68  O   UNL     1       7.891  15.491  37.963  0.00  0.00    +0.000 OA
ATOM     69  H   UNL     1       7.090  15.037  38.297  0.00  0.00    +0.000 HD
ENDBRANCH  63  68
BRANCH  61  70
ATOM     70  C   UNL     1       9.457  16.568  35.570  0.00  0.00    +0.000 C 
BRANCH  70  71
ATOM     71  O   UNL     1      10.859  16.463  35.864  0.00  0.00    +0.000 OA
ATOM     72  H   UNL     1      11.291  17.297  35.592  0.00  0.00    +0.000 HD
ENDBRANCH  70  71
ENDBRANCH  61  70
ENDBRANCH  57  58
ENDBRANCH   5  57
TORSDOF 19
ENDMDL
MODEL 15
REMARK VINA RESULT:    -3.684      2.606      6.281
REMARK INTER + INTRA:         -10.977
REMARK INTER:                  -7.259
REMARK INTRA:                  -3.718
REMARK UNBOUND:                -4.278
REMARK  Name = opt73.pdb
REMARK  19 active torsions:
REMARK  status: ('A' for Active; 'I' for Inactive)
REMARK    1  A    between atoms: C_5  and  O_9
REMARK    2  A    between atoms: C_7  and  O_13
REMARK    3  A    between atoms: O_9  and  C_16
REMARK    4  A    between atoms: C_12  and  C_18
REMARK    5  A    between atoms: C_19  and  C_24
REMARK    6  A    between atoms: C_21  and  O_26
REMARK    7  A    between atoms: C_25  and  C_35
REMARK    8  A    between atoms: C_27  and  O_36
REMARK    9  A    between atoms: C_34  and  O_42
REMARK   10  A    between atoms: C_35  and  O_43
REMARK   11  A    between atoms: C_38  and  O_45
REMARK   12  A    between atoms: C_39  and  C_47
REMARK   13  A    between atoms: C_40  and  O_48
REMARK   14  A    between atoms: O_48  and  C_52
REMARK   15  A    between atoms: C_54  and  O_56
REMARK   16  A    between atoms: C_55  and  C_59
REMARK   17  A    between atoms: C_57  and  O_60
REMARK   18  A    between atoms: C_58  and  O_61
REMARK   19  A    between atoms: C_59  and  O_62
REMARK                            x       y       z     vdW  Elec       q    Type
REMARK                         _______ _______ _______ _____ _____    ______ ____
ROOT
ATOM      1  O   UNL     1       9.068  15.741  43.131  0.00  0.00    +0.000 OA
ATOM      2  C   UNL     1       9.933  16.227  42.420  0.00  0.00    +0.000 C 
ATOM      3  C   UNL     1       9.636  16.638  41.001  0.00  0.00    +0.000 A 
ATOM      4  C   UNL     1      11.368  16.306  42.886  0.00  0.00    +0.000 A 
ATOM      5  C   UNL     1       8.396  16.334  40.382  0.00  0.00    +0.000 A 
ATOM      6  C   UNL     1      10.654  17.265  40.249  0.00  0.00    +0.000 A 
ATOM      7  C   UNL     1      11.773  15.821  44.143  0.00  0.00    +0.000 A 
ATOM      8  C   UNL     1      12.336  16.871  42.043  0.00  0.00    +0.000 A 
ATOM      9  C   UNL     1       8.195  16.645  39.037  0.00  0.00    +0.000 A 
ATOM     10  C   UNL     1      10.438  17.478  38.879  0.00  0.00    +0.000 A 
ATOM     11  C   UNL     1      11.921  17.631  40.885  0.00  0.00    +0.000 C 
ATOM     12  C   UNL     1      13.105  15.907  44.539  0.00  0.00    +0.000 A 
ATOM     13  C   UNL     1      13.683  16.888  42.424  0.00  0.00    +0.000 A 
ATOM     14  C   UNL     1       9.218  17.194  38.284  0.00  0.00    +0.000 A 
ATOM     15  C   UNL     1      14.069  16.453  43.694  0.00  0.00    +0.000 A 
ENDROOT
BRANCH  11  16
ATOM     16  C   UNL     1      12.180  19.074  41.029  0.00  0.00    +0.000 C 
ATOM     17  C   UNL     1      11.436  19.708  42.101  0.00  0.00    +0.000 A 
ATOM     18  C   UNL     1      13.576  19.463  40.814  0.00  0.00    +0.000 A 
ATOM     19  C   UNL     1      12.120  20.263  43.190  0.00  0.00    +0.000 A 
ATOM     20  C   UNL     1      10.036  19.643  42.118  0.00  0.00    +0.000 A 
ATOM     21  C   UNL     1      14.355  19.860  41.911  0.00  0.00    +0.000 A 
ATOM     22  C   UNL     1      14.184  19.419  39.548  0.00  0.00    +0.000 A 
ATOM     23  C   UNL     1      13.627  20.223  43.190  0.00  0.00    +0.000 C 
ATOM     24  C   UNL     1      11.379  20.812  44.263  0.00  0.00    +0.000 A 
ATOM     25  C   UNL     1       9.315  20.046  43.246  0.00  0.00    +0.000 A 
ATOM     26  C   UNL     1      15.761  19.981  41.753  0.00  0.00    +0.000 A 
ATOM     27  C   UNL     1      15.556  19.549  39.396  0.00  0.00    +0.000 A 
ATOM     28  O   UNL     1      14.221  20.543  44.193  0.00  0.00    +0.000 OA
ATOM     29  C   UNL     1       9.995  20.666  44.292  0.00  0.00    +0.000 A 
ATOM     30  C   UNL     1      16.351  19.784  40.506  0.00  0.00    +0.000 A 
BRANCH  25  31
ATOM     31  C   UNL     1       7.844  19.762  43.373  0.00  0.00    +0.000 C 
ATOM     32  O   UNL     1       7.114  20.668  43.720  0.00  0.00    +0.000 OA
ATOM     33  O   UNL     1       7.439  18.662  43.052  0.00  0.00    +0.000 OA
ENDBRANCH  25  31
BRANCH  24  34
ATOM     34  O   UNL     1      11.941  21.510  45.308  0.00  0.00    +0.000 OA
ATOM     35  H   UNL     1      12.770  21.953  45.040  0.00  0.00    +0.000 HD
ENDBRANCH  24  34
BRANCH  26  36
ATOM     36  O   UNL     1      16.589  20.187  42.841  0.00  0.00    +0.000 OA
BRANCH  36  37
ATOM     37  C   UNL     1      17.599  21.231  43.069  0.00  0.00    +0.000 C 
ATOM     38  O   UNL     1      17.876  21.322  44.484  0.00  0.00    +0.000 OA
ATOM     39  C   UNL     1      18.928  20.752  42.427  0.00  0.00    +0.000 C 
ATOM     40  C   UNL     1      17.968  20.027  45.129  0.00  0.00    +0.000 C 
ATOM     41  C   UNL     1      19.144  19.297  42.856  0.00  0.00    +0.000 C 
ATOM     42  C   UNL     1      18.943  19.045  44.384  0.00  0.00    +0.000 C 
BRANCH  42  43
ATOM     43  O   UNL     1      18.390  17.725  44.450  0.00  0.00    +0.000 OA
ATOM     44  H   UNL     1      17.803  17.693  45.252  0.00  0.00    +0.000 HD
ENDBRANCH  42  43
BRANCH  41  45
ATOM     45  O   UNL     1      20.449  18.881  42.459  0.00  0.00    +0.000 OA
ATOM     46  H   UNL     1      20.322  18.002  42.085  0.00  0.00    +0.000 HD
ENDBRANCH  41  45
BRANCH  39  47
ATOM     47  O   UNL     1      20.091  21.509  42.824  0.00  0.00    +0.000 OA
ATOM     48  H   UNL     1      20.541  20.999  43.548  0.00  0.00    +0.000 HD
ENDBRANCH  39  47
BRANCH  40  49
ATOM     49  C   UNL     1      18.247  20.205  46.631  0.00  0.00    +0.000 C 
BRANCH  49  50
ATOM     50  O   UNL     1      18.746  18.967  47.179  0.00  0.00    +0.000 OA
ATOM     51  H   UNL     1      19.675  18.809  46.892  0.00  0.00    +0.000 HD
ENDBRANCH  49  50
ENDBRANCH  40  49
ENDBRANCH  36  37
ENDBRANCH  26  36
ENDBRANCH  11  16
BRANCH  15  52
ATOM     52  C   UNL     1      15.470  16.672  44.190  0.00  0.00    +0.000 C 
ATOM     53  O   UNL     1      16.383  16.135  43.593  0.00  0.00    +0.000 OA
ATOM     54  O   UNL     1      15.628  17.324  45.202  0.00  0.00    +0.000 OA
ENDBRANCH  15  52
BRANCH   7  55
ATOM     55  O   UNL     1      10.876  15.305  45.033  0.00  0.00    +0.000 OA
ATOM     56  H   UNL     1      10.938  15.859  45.839  0.00  0.00    +0.000 HD
ENDBRANCH   7  55
BRANCH   5  57
ATOM     57  O   UNL     1       7.368  15.679  41.065  0.00  0.00    +0.000 OA
BRANCH  57  58
ATOM     58  C   UNL     1       6.998  14.298  40.800  0.00  0.00    +0.000 C 
ATOM     59  O   UNL     1       8.141  13.415  40.920  0.00  0.00    +0.000 OA
ATOM     60  C   UNL     1       5.901  13.820  41.783  0.00  0.00    +0.000 C 
ATOM     61  C   UNL     1       8.765  13.345  42.235  0.00  0.00    +0.000 C 
ATOM     62  C   UNL     1       6.451  13.751  43.228  0.00  0.00    +0.000 C 
ATOM     63  C   UNL     1       7.726  12.877  43.290  0.00  0.00    +0.000 C 
BRANCH  60  64
ATOM     64  O   UNL     1       5.451  12.524  41.361  0.00  0.00    +0.000 OA
ATOM     65  H   UNL     1       6.239  11.959  41.230  0.00  0.00    +0.000 HD
ENDBRANCH  60  64
BRANCH  62  66
ATOM     66  O   UNL     1       5.451  13.229  44.123  0.00  0.00    +0.000 OA
ATOM     67  H   UNL     1       4.929  12.542  43.663  0.00  0.00    +0.000 HD
ENDBRANCH  62  66
BRANCH  63  68
ATOM     68  O   UNL     1       8.277  12.956  44.611  0.00  0.00    +0.000 OA
ATOM     69  H   UNL     1       8.453  12.048  44.931  0.00  0.00    +0.000 HD
ENDBRANCH  63  68
BRANCH  61  70
ATOM     70  C   UNL     1       9.962  12.372  42.129  0.00  0.00    +0.000 C 
BRANCH  70  71
ATOM     71  O   UNL     1      10.921  12.618  43.170  0.00  0.00    +0.000 OA
ATOM     72  H   UNL     1      10.495  12.430  44.029  0.00  0.00    +0.000 HD
ENDBRANCH  70  71
ENDBRANCH  61  70
ENDBRANCH  57  58
ENDBRANCH   5  57
TORSDOF 19
ENDMDL
MODEL 16
REMARK VINA RESULT:    -3.681      2.444      5.316
REMARK INTER + INTRA:         -10.971
REMARK INTER:                  -6.270
REMARK INTRA:                  -4.701
REMARK UNBOUND:                -4.278
REMARK  Name = opt73.pdb
REMARK  19 active torsions:
REMARK  status: ('A' for Active; 'I' for Inactive)
REMARK    1  A    between atoms: C_5  and  O_9
REMARK    2  A    between atoms: C_7  and  O_13
REMARK    3  A    between atoms: O_9  and  C_16
REMARK    4  A    between atoms: C_12  and  C_18
REMARK    5  A    between atoms: C_19  and  C_24
REMARK    6  A    between atoms: C_21  and  O_26
REMARK    7  A    between atoms: C_25  and  C_35
REMARK    8  A    between atoms: C_27  and  O_36
REMARK    9  A    between atoms: C_34  and  O_42
REMARK   10  A    between atoms: C_35  and  O_43
REMARK   11  A    between atoms: C_38  and  O_45
REMARK   12  A    between atoms: C_39  and  C_47
REMARK   13  A    between atoms: C_40  and  O_48
REMARK   14  A    between atoms: O_48  and  C_52
REMARK   15  A    between atoms: C_54  and  O_56
REMARK   16  A    between atoms: C_55  and  C_59
REMARK   17  A    between atoms: C_57  and  O_60
REMARK   18  A    between atoms: C_58  and  O_61
REMARK   19  A    between atoms: C_59  and  O_62
REMARK                            x       y       z     vdW  Elec       q    Type
REMARK                         _______ _______ _______ _____ _____    ______ ____
ROOT
ATOM      1  O   UNL     1       8.833  16.451  41.135  0.00  0.00    +0.000 OA
ATOM      2  C   UNL     1       9.964  16.759  40.794  0.00  0.00    +0.000 C 
ATOM      3  C   UNL     1      10.263  17.176  39.377  0.00  0.00    +0.000 A 
ATOM      4  C   UNL     1      11.131  16.598  41.739  0.00  0.00    +0.000 A 
ATOM      5  C   UNL     1       9.290  17.077  38.349  0.00  0.00    +0.000 A 
ATOM      6  C   UNL     1      11.574  17.594  39.056  0.00  0.00    +0.000 A 
ATOM      7  C   UNL     1      10.974  16.085  43.039  0.00  0.00    +0.000 A 
ATOM      8  C   UNL     1      12.417  16.962  41.312  0.00  0.00    +0.000 A 
ATOM      9  C   UNL     1       9.636  17.380  37.032  0.00  0.00    +0.000 A 
ATOM     10  C   UNL     1      11.897  17.805  37.706  0.00  0.00    +0.000 A 
ATOM     11  C   UNL     1      12.577  17.751  40.111  0.00  0.00    +0.000 C 
ATOM     12  C   UNL     1      12.074  15.948  43.882  0.00  0.00    +0.000 A 
ATOM     13  C   UNL     1      13.523  16.755  42.145  0.00  0.00    +0.000 A 
ATOM     14  C   UNL     1      10.937  17.722  36.710  0.00  0.00    +0.000 A 
ATOM     15  C   UNL     1      13.354  16.293  43.453  0.00  0.00    +0.000 A 
ENDROOT
BRANCH  11  16
ATOM     16  C   UNL     1      13.013  19.130  40.390  0.00  0.00    +0.000 C 
ATOM     17  C   UNL     1      12.539  19.660  41.654  0.00  0.00    +0.000 A 
ATOM     18  C   UNL     1      14.387  19.426  39.972  0.00  0.00    +0.000 A 
ATOM     19  C   UNL     1      13.456  19.990  42.660  0.00  0.00    +0.000 A 
ATOM     20  C   UNL     1      11.164  19.713  41.921  0.00  0.00    +0.000 A 
ATOM     21  C   UNL     1      15.381  19.590  40.948  0.00  0.00    +0.000 A 
ATOM     22  C   UNL     1      14.759  19.517  38.620  0.00  0.00    +0.000 A 
ATOM     23  C   UNL     1      14.928  19.822  42.375  0.00  0.00    +0.000 C 
ATOM     24  C   UNL     1      12.976  20.436  43.913  0.00  0.00    +0.000 A 
ATOM     25  C   UNL     1      10.696  20.006  43.206  0.00  0.00    +0.000 A 
ATOM     26  C   UNL     1      16.744  19.613  40.548  0.00  0.00    +0.000 A 
ATOM     27  C   UNL     1      16.091  19.551  38.235  0.00  0.00    +0.000 A 
ATOM     28  O   UNL     1      15.717  19.940  43.283  0.00  0.00    +0.000 OA
ATOM     29  C   UNL     1      11.610  20.405  44.179  0.00  0.00    +0.000 A 
ATOM     30  C   UNL     1      17.086  19.552  39.198  0.00  0.00    +0.000 A 
BRANCH  25  31
ATOM     31  C   UNL     1       9.247  19.832  43.566  0.00  0.00    +0.000 C 
ATOM     32  O   UNL     1       8.609  20.821  43.866  0.00  0.00    +0.000 OA
ATOM     33  O   UNL     1       8.756  18.724  43.468  0.00  0.00    +0.000 OA
ENDBRANCH  25  31
BRANCH  24  34
ATOM     34  O   UNL     1      13.782  20.923  44.917  0.00  0.00    +0.000 OA
ATOM     35  H   UNL     1      13.668  21.887  45.033  0.00  0.00    +0.000 HD
ENDBRANCH  24  34
BRANCH  26  36
ATOM     36  O   UNL     1      17.764  19.587  41.481  0.00  0.00    +0.000 OA
BRANCH  36  37
ATOM     37  C   UNL     1      19.134  19.066  41.362  0.00  0.00    +0.000 C 
ATOM     38  O   UNL     1      19.883  19.430  42.543  0.00  0.00    +0.000 OA
ATOM     39  C   UNL     1      19.055  17.517  41.394  0.00  0.00    +0.000 C 
ATOM     40  C   UNL     1      19.121  19.282  43.767  0.00  0.00    +0.000 C 
ATOM     41  C   UNL     1      18.130  17.130  42.553  0.00  0.00    +0.000 C 
ATOM     42  C   UNL     1      18.442  17.870  43.893  0.00  0.00    +0.000 C 
BRANCH  42  43
ATOM     43  O   UNL     1      17.157  18.041  44.504  0.00  0.00    +0.000 OA
ATOM     44  H   UNL     1      17.020  17.271  45.118  0.00  0.00    +0.000 HD
ENDBRANCH  42  43
BRANCH  41  45
ATOM     45  O   UNL     1      18.189  15.718  42.748  0.00  0.00    +0.000 OA
ATOM     46  H   UNL     1      17.307  15.476  43.049  0.00  0.00    +0.000 HD
ENDBRANCH  41  45
BRANCH  39  47
ATOM     47  O   UNL     1      20.323  16.858  41.599  0.00  0.00    +0.000 OA
ATOM     48  H   UNL     1      20.137  15.888  41.704  0.00  0.00    +0.000 HD
ENDBRANCH  39  47
BRANCH  40  49
ATOM     49  C   UNL     1      19.977  19.701  44.975  0.00  0.00    +0.000 C 
BRANCH  49  50
ATOM     50  O   UNL     1      19.475  19.062  46.167  0.00  0.00    +0.000 OA
ATOM     51  H   UNL     1      20.174  18.506  46.583  0.00  0.00    +0.000 HD
ENDBRANCH  49  50
ENDBRANCH  40  49
ENDBRANCH  36  37
ENDBRANCH  26  36
ENDBRANCH  11  16
BRANCH  15  52
ATOM     52  C   UNL     1      14.504  16.278  44.419  0.00  0.00    +0.000 C 
ATOM     53  O   UNL     1      14.529  17.117  45.299  0.00  0.00    +0.000 OA
ATOM     54  O   UNL     1      15.391  15.467  44.245  0.00  0.00    +0.000 OA
ENDBRANCH  15  52
BRANCH   7  55
ATOM     55  O   UNL     1       9.746  15.759  43.535  0.00  0.00    +0.000 OA
ATOM     56  H   UNL     1       9.900  15.092  44.236  0.00  0.00    +0.000 HD
ENDBRANCH   7  55
BRANCH   5  57
ATOM     57  O   UNL     1       7.991  16.631  38.601  0.00  0.00    +0.000 OA
BRANCH  57  58
ATOM     58  C   UNL     1       6.808  17.405  38.258  0.00  0.00    +0.000 C 
ATOM     59  O   UNL     1       5.950  17.593  39.411  0.00  0.00    +0.000 OA
ATOM     60  C   UNL     1       7.198  18.795  37.701  0.00  0.00    +0.000 C 
ATOM     61  C   UNL     1       6.523  18.339  40.524  0.00  0.00    +0.000 C 
ATOM     62  C   UNL     1       7.860  19.661  38.800  0.00  0.00    +0.000 C 
ATOM     63  C   UNL     1       6.951  19.754  40.048  0.00  0.00    +0.000 C 
BRANCH  60  64
ATOM     64  O   UNL     1       6.009  19.437  37.214  0.00  0.00    +0.000 OA
ATOM     65  H   UNL     1       5.955  19.280  36.250  0.00  0.00    +0.000 HD
ENDBRANCH  60  64
BRANCH  62  66
ATOM     66  O   UNL     1       8.146  20.980  38.298  0.00  0.00    +0.000 OA
ATOM     67  H   UNL     1       7.740  21.088  37.415  0.00  0.00    +0.000 HD
ENDBRANCH  62  66
BRANCH  63  68
ATOM     68  O   UNL     1       7.661  20.443  41.086  0.00  0.00    +0.000 OA
ATOM     69  H   UNL     1       7.163  20.345  41.923  0.00  0.00    +0.000 HD
ENDBRANCH  63  68
BRANCH  61  70
ATOM     70  C   UNL     1       5.455  18.401  41.640  0.00  0.00    +0.000 C 
BRANCH  70  71
ATOM     71  O   UNL     1       5.940  19.129  42.779  0.00  0.00    +0.000 OA
ATOM     72  H   UNL     1       5.761  20.080  42.633  0.00  0.00    +0.000 HD
ENDBRANCH  70  71
ENDBRANCH  61  70
ENDBRANCH  57  58
ENDBRANCH   5  57
TORSDOF 19
ENDMDL
MODEL 17
REMARK VINA RESULT:    -3.679      2.343      9.293
REMARK INTER + INTRA:         -10.967
REMARK INTER:                  -7.589
REMARK INTRA:                  -3.379
REMARK UNBOUND:                -4.278
REMARK  Name = opt73.pdb
REMARK  19 active torsions:
REMARK  status: ('A' for Active; 'I' for Inactive)
REMARK    1  A    between atoms: C_5  and  O_9
REMARK    2  A    between atoms: C_7  and  O_13
REMARK    3  A    between atoms: O_9  and  C_16
REMARK    4  A    between atoms: C_12  and  C_18
REMARK    5  A    between atoms: C_19  and  C_24
REMARK    6  A    between atoms: C_21  and  O_26
REMARK    7  A    between atoms: C_25  and  C_35
REMARK    8  A    between atoms: C_27  and  O_36
REMARK    9  A    between atoms: C_34  and  O_42
REMARK   10  A    between atoms: C_35  and  O_43
REMARK   11  A    between atoms: C_38  and  O_45
REMARK   12  A    between atoms: C_39  and  C_47
REMARK   13  A    between atoms: C_40  and  O_48
REMARK   14  A    between atoms: O_48  and  C_52
REMARK   15  A    between atoms: C_54  and  O_56
REMARK   16  A    between atoms: C_55  and  C_59
REMARK   17  A    between atoms: C_57  and  O_60
REMARK   18  A    between atoms: C_58  and  O_61
REMARK   19  A    between atoms: C_59  and  O_62
REMARK                            x       y       z     vdW  Elec       q    Type
REMARK                         _______ _______ _______ _____ _____    ______ ____
ROOT
ATOM      1  O   UNL     1      15.342  16.098  42.856  0.00  0.00    +0.000 OA
ATOM      2  C   UNL     1      14.538  16.966  43.158  0.00  0.00    +0.000 C 
ATOM      3  C   UNL     1      14.993  18.288  43.721  0.00  0.00    +0.000 A 
ATOM      4  C   UNL     1      13.052  16.697  43.114  0.00  0.00    +0.000 A 
ATOM      5  C   UNL     1      16.347  18.522  44.071  0.00  0.00    +0.000 A 
ATOM      6  C   UNL     1      14.024  19.283  43.982  0.00  0.00    +0.000 A 
ATOM      7  C   UNL     1      12.531  15.446  42.736  0.00  0.00    +0.000 A 
ATOM      8  C   UNL     1      12.157  17.716  43.469  0.00  0.00    +0.000 A 
ATOM      9  C   UNL     1      16.711  19.724  44.679  0.00  0.00    +0.000 A 
ATOM     10  C   UNL     1      14.422  20.438  44.673  0.00  0.00    +0.000 A 
ATOM     11  C   UNL     1      12.631  19.078  43.582  0.00  0.00    +0.000 C 
ATOM     12  C   UNL     1      11.155  15.233  42.709  0.00  0.00    +0.000 A 
ATOM     13  C   UNL     1      10.780  17.467  43.505  0.00  0.00    +0.000 A 
ATOM     14  C   UNL     1      15.749  20.667  44.998  0.00  0.00    +0.000 A 
ATOM     15  C   UNL     1      10.266  16.241  43.077  0.00  0.00    +0.000 A 
ENDROOT
BRANCH  11  16
ATOM     16  C   UNL     1      12.135  19.944  42.498  0.00  0.00    +0.000 C 
ATOM     17  C   UNL     1      12.980  19.966  41.319  0.00  0.00    +0.000 A 
ATOM     18  C   UNL     1      10.679  19.921  42.323  0.00  0.00    +0.000 A 
ATOM     19  C   UNL     1      12.490  19.475  40.102  0.00  0.00    +0.000 A 
ATOM     20  C   UNL     1      14.324  20.347  41.427  0.00  0.00    +0.000 A 
ATOM     21  C   UNL     1      10.134  19.281  41.200  0.00  0.00    +0.000 A 
ATOM     22  C   UNL     1       9.799  20.487  43.261  0.00  0.00    +0.000 A 
ATOM     23  C   UNL     1      11.068  18.975  40.047  0.00  0.00    +0.000 C 
ATOM     24  C   UNL     1      13.349  19.434  38.980  0.00  0.00    +0.000 A 
ATOM     25  C   UNL     1      15.206  20.161  40.358  0.00  0.00    +0.000 A 
ATOM     26  C   UNL     1       8.737  19.027  41.161  0.00  0.00    +0.000 A 
ATOM     27  C   UNL     1       8.434  20.245  43.212  0.00  0.00    +0.000 A 
ATOM     28  O   UNL     1      10.689  18.396  39.056  0.00  0.00    +0.000 OA
ATOM     29  C   UNL     1      14.697  19.744  39.130  0.00  0.00    +0.000 A 
ATOM     30  C   UNL     1       7.908  19.476  42.188  0.00  0.00    +0.000 A 
BRANCH  25  31
ATOM     31  C   UNL     1      16.690  20.337  40.533  0.00  0.00    +0.000 C 
ATOM     32  O   UNL     1      17.428  19.809  39.727  0.00  0.00    +0.000 OA
ATOM     33  O   UNL     1      17.083  21.062  41.426  0.00  0.00    +0.000 OA
ENDBRANCH  25  31
BRANCH  24  34
ATOM     34  O   UNL     1      12.936  19.111  37.706  0.00  0.00    +0.000 OA
ATOM     35  H   UNL     1      12.037  18.726  37.707  0.00  0.00    +0.000 HD
ENDBRANCH  24  34
BRANCH  26  36
ATOM     36  O   UNL     1       8.180  18.240  40.170  0.00  0.00    +0.000 OA
BRANCH  36  37
ATOM     37  C   UNL     1       6.778  17.851  39.955  0.00  0.00    +0.000 C 
ATOM     38  O   UNL     1       6.107  18.890  39.207  0.00  0.00    +0.000 OA
ATOM     39  C   UNL     1       6.769  16.611  39.023  0.00  0.00    +0.000 C 
ATOM     40  C   UNL     1       6.917  19.428  38.131  0.00  0.00    +0.000 C 
ATOM     41  C   UNL     1       7.724  16.906  37.861  0.00  0.00    +0.000 C 
ATOM     42  C   UNL     1       7.519  18.309  37.206  0.00  0.00    +0.000 C 
BRANCH  42  43
ATOM     43  O   UNL     1       8.839  18.709  36.817  0.00  0.00    +0.000 OA
ATOM     44  H   UNL     1       9.240  19.186  37.592  0.00  0.00    +0.000 HD
ENDBRANCH  42  43
BRANCH  41  45
ATOM     45  O   UNL     1       7.593  15.882  36.876  0.00  0.00    +0.000 OA
ATOM     46  H   UNL     1       7.876  15.077  37.322  0.00  0.00    +0.000 HD
ENDBRANCH  41  45
BRANCH  39  47
ATOM     47  O   UNL     1       5.477  16.292  38.464  0.00  0.00    +0.000 OA
ATOM     48  H   UNL     1       5.442  15.307  38.347  0.00  0.00    +0.000 HD
ENDBRANCH  39  47
BRANCH  40  49
ATOM     49  C   UNL     1       6.144  20.535  37.393  0.00  0.00    +0.000 C 
BRANCH  49  50
ATOM     50  O   UNL     1       7.065  21.333  36.622  0.00  0.00    +0.000 OA
ATOM     51  H   UNL     1       6.614  21.721  35.835  0.00  0.00    +0.000 HD
ENDBRANCH  49  50
ENDBRANCH  40  49
ENDBRANCH  36  37
ENDBRANCH  26  36
ENDBRANCH  11  16
BRANCH  15  52
ATOM     52  C   UNL     1       8.787  16.043  42.904  0.00  0.00    +0.000 C 
ATOM     53  O   UNL     1       8.399  15.419  41.936  0.00  0.00    +0.000 OA
ATOM     54  O   UNL     1       8.039  16.566  43.704  0.00  0.00    +0.000 OA
ENDBRANCH  15  52
BRANCH   7  55
ATOM     55  O   UNL     1      13.342  14.426  42.330  0.00  0.00    +0.000 OA
ATOM     56  H   UNL     1      12.807  13.608  42.392  0.00  0.00    +0.000 HD
ENDBRANCH   7  55
BRANCH   5  57
ATOM     57  O   UNL     1      17.340  17.560  43.873  0.00  0.00    +0.000 OA
BRANCH  57  58
ATOM     58  C   UNL     1      18.739  17.899  43.663  0.00  0.00    +0.000 C 
ATOM     59  O   UNL     1      19.608  16.800  44.036  0.00  0.00    +0.000 OA
ATOM     60  C   UNL     1      19.006  18.257  42.181  0.00  0.00    +0.000 C 
ATOM     61  C   UNL     1      19.447  15.567  43.277  0.00  0.00    +0.000 C 
ATOM     62  C   UNL     1      18.819  17.016  41.274  0.00  0.00    +0.000 C 
ATOM     63  C   UNL     1      19.692  15.838  41.768  0.00  0.00    +0.000 C 
BRANCH  60  64
ATOM     64  O   UNL     1      20.349  18.753  42.071  0.00  0.00    +0.000 OA
ATOM     65  H   UNL     1      20.862  18.115  41.534  0.00  0.00    +0.000 HD
ENDBRANCH  60  64
BRANCH  62  66
ATOM     66  O   UNL     1      19.148  17.336  39.909  0.00  0.00    +0.000 OA
ATOM     67  H   UNL     1      18.403  17.816  39.498  0.00  0.00    +0.000 HD
ENDBRANCH  62  66
BRANCH  63  68
ATOM     68  O   UNL     1      19.383  14.676  40.989  0.00  0.00    +0.000 OA
ATOM     69  H   UNL     1      19.148  14.960  40.082  0.00  0.00    +0.000 HD
ENDBRANCH  63  68
BRANCH  61  70
ATOM     70  C   UNL     1      20.446  14.535  43.850  0.00  0.00    +0.000 C 
BRANCH  70  71
ATOM     71  O   UNL     1      20.406  14.519  45.286  0.00  0.00    +0.000 OA
ATOM     72  H   UNL     1      20.139  13.624  45.574  0.00  0.00    +0.000 HD
ENDBRANCH  70  71
ENDBRANCH  61  70
ENDBRANCH  57  58
ENDBRANCH   5  57
TORSDOF 19
ENDMDL
MODEL 18
REMARK VINA RESULT:    -3.651      2.763      9.790
REMARK INTER + INTRA:         -10.916
REMARK INTER:                  -5.765
REMARK INTRA:                  -5.151
REMARK UNBOUND:                -4.278
REMARK  Name = opt73.pdb
REMARK  19 active torsions:
REMARK  status: ('A' for Active; 'I' for Inactive)
REMARK    1  A    between atoms: C_5  and  O_9
REMARK    2  A    between atoms: C_7  and  O_13
REMARK    3  A    between atoms: O_9  and  C_16
REMARK    4  A    between atoms: C_12  and  C_18
REMARK    5  A    between atoms: C_19  and  C_24
REMARK    6  A    between atoms: C_21  and  O_26
REMARK    7  A    between atoms: C_25  and  C_35
REMARK    8  A    between atoms: C_27  and  O_36
REMARK    9  A    between atoms: C_34  and  O_42
REMARK   10  A    between atoms: C_35  and  O_43
REMARK   11  A    between atoms: C_38  and  O_45
REMARK   12  A    between atoms: C_39  and  C_47
REMARK   13  A    between atoms: C_40  and  O_48
REMARK   14  A    between atoms: O_48  and  C_52
REMARK   15  A    between atoms: C_54  and  O_56
REMARK   16  A    between atoms: C_55  and  C_59
REMARK   17  A    between atoms: C_57  and  O_60
REMARK   18  A    between atoms: C_58  and  O_61
REMARK   19  A    between atoms: C_59  and  O_62
REMARK                            x       y       z     vdW  Elec       q    Type
REMARK                         _______ _______ _______ _____ _____    ______ ____
ROOT
ATOM      1  O   UNL     1      15.138  20.172  44.962  0.00  0.00    +0.000 OA
ATOM      2  C   UNL     1      14.868  20.353  43.785  0.00  0.00    +0.000 C 
ATOM      3  C   UNL     1      15.953  20.578  42.763  0.00  0.00    +0.000 A 
ATOM      4  C   UNL     1      13.435  20.500  43.331  0.00  0.00    +0.000 A 
ATOM      5  C   UNL     1      17.309  20.749  43.141  0.00  0.00    +0.000 A 
ATOM      6  C   UNL     1      15.587  20.707  41.404  0.00  0.00    +0.000 A 
ATOM      7  C   UNL     1      12.357  20.444  44.232  0.00  0.00    +0.000 A 
ATOM      8  C   UNL     1      13.162  20.708  41.971  0.00  0.00    +0.000 A 
ATOM      9  C   UNL     1      18.268  21.052  42.174  0.00  0.00    +0.000 A 
ATOM     10  C   UNL     1      16.570  21.098  40.482  0.00  0.00    +0.000 A 
ATOM     11  C   UNL     1      14.200  20.485  40.990  0.00  0.00    +0.000 C 
ATOM     12  C   UNL     1      11.048  20.586  43.779  0.00  0.00    +0.000 A 
ATOM     13  C   UNL     1      11.848  20.918  41.538  0.00  0.00    +0.000 A 
ATOM     14  C   UNL     1      17.896  21.247  40.855  0.00  0.00    +0.000 A 
ATOM     15  C   UNL     1      10.777  20.809  42.430  0.00  0.00    +0.000 A 
ENDROOT
BRANCH  11  16
ATOM     16  C   UNL     1      13.955  19.291  40.163  0.00  0.00    +0.000 C 
ATOM     17  C   UNL     1      13.442  18.151  40.900  0.00  0.00    +0.000 A 
ATOM     18  C   UNL     1      13.406  19.577  38.834  0.00  0.00    +0.000 A 
ATOM     19  C   UNL     1      12.161  17.659  40.617  0.00  0.00    +0.000 A 
ATOM     20  C   UNL     1      14.165  17.633  41.983  0.00  0.00    +0.000 A 
ATOM     21  C   UNL     1      12.067  19.260  38.562  0.00  0.00    +0.000 A 
ATOM     22  C   UNL     1      14.163  20.195  37.825  0.00  0.00    +0.000 A 
ATOM     23  C   UNL     1      11.367  18.309  39.513  0.00  0.00    +0.000 C 
ATOM     24  C   UNL     1      11.645  16.596  41.393  0.00  0.00    +0.000 A 
ATOM     25  C   UNL     1      13.588  16.690  42.840  0.00  0.00    +0.000 A 
ATOM     26  C   UNL     1      11.463  19.769  37.382  0.00  0.00    +0.000 A 
ATOM     27  C   UNL     1      13.570  20.682  36.669  0.00  0.00    +0.000 A 
ATOM     28  O   UNL     1      10.205  18.008  39.372  0.00  0.00    +0.000 OA
ATOM     29  C   UNL     1      12.347  16.151  42.509  0.00  0.00    +0.000 A 
ATOM     30  C   UNL     1      12.211  20.510  36.468  0.00  0.00    +0.000 A 
BRANCH  25  31
ATOM     31  C   UNL     1      14.252  16.305  44.133  0.00  0.00    +0.000 C 
ATOM     32  O   UNL     1      14.083  17.021  45.099  0.00  0.00    +0.000 OA
ATOM     33  O   UNL     1      14.866  15.256  44.177  0.00  0.00    +0.000 OA
ENDBRANCH  25  31
BRANCH  24  34
ATOM     34  O   UNL     1      10.467  15.940  41.113  0.00  0.00    +0.000 OA
ATOM     35  H   UNL     1       9.847  16.510  40.617  0.00  0.00    +0.000 HD
ENDBRANCH  24  34
BRANCH  26  36
ATOM     36  O   UNL     1      10.104  19.641  37.161  0.00  0.00    +0.000 OA
BRANCH  36  37
ATOM     37  C   UNL     1       9.298  20.048  36.001  0.00  0.00    +0.000 C 
ATOM     38  O   UNL     1       8.524  18.918  35.541  0.00  0.00    +0.000 OA
ATOM     39  C   UNL     1       8.251  21.082  36.493  0.00  0.00    +0.000 C 
ATOM     40  C   UNL     1       7.953  18.143  36.625  0.00  0.00    +0.000 C 
ATOM     41  C   UNL     1       7.620  20.521  37.772  0.00  0.00    +0.000 C 
ATOM     42  C   UNL     1       7.171  19.029  37.661  0.00  0.00    +0.000 C 
BRANCH  42  43
ATOM     43  O   UNL     1       7.400  18.498  38.972  0.00  0.00    +0.000 OA
ATOM     44  H   UNL     1       8.230  18.922  39.319  0.00  0.00    +0.000 HD
ENDBRANCH  42  43
BRANCH  41  45
ATOM     45  O   UNL     1       6.513  21.339  38.145  0.00  0.00    +0.000 OA
ATOM     46  H   UNL     1       6.642  22.161  37.660  0.00  0.00    +0.000 HD
ENDBRANCH  41  45
BRANCH  39  47
ATOM     47  O   UNL     1       7.188  21.349  35.553  0.00  0.00    +0.000 OA
ATOM     48  H   UNL     1       7.544  21.163  34.645  0.00  0.00    +0.000 HD
ENDBRANCH  39  47
BRANCH  40  49
ATOM     49  C   UNL     1       7.159  16.952  36.060  0.00  0.00    +0.000 C 
BRANCH  49  50
ATOM     50  O   UNL     1       6.168  16.533  37.021  0.00  0.00    +0.000 OA
ATOM     51  H   UNL     1       6.553  15.890  37.660  0.00  0.00    +0.000 HD
ENDBRANCH  49  50
ENDBRANCH  40  49
ENDBRANCH  36  37
ENDBRANCH  26  36
ENDBRANCH  11  16
BRANCH  15  52
ATOM     52  C   UNL     1       9.359  20.814  41.936  0.00  0.00    +0.000 C 
ATOM     53  O   UNL     1       8.523  20.206  42.576  0.00  0.00    +0.000 OA
ATOM     54  O   UNL     1       9.117  21.373  40.886  0.00  0.00    +0.000 OA
ENDBRANCH  15  52
BRANCH   7  55
ATOM     55  O   UNL     1      12.547  20.195  45.561  0.00  0.00    +0.000 OA
ATOM     56  H   UNL     1      12.077  19.357  45.753  0.00  0.00    +0.000 HD
ENDBRANCH   7  55
BRANCH   5  57
ATOM     57  O   UNL     1      17.722  20.673  44.473  0.00  0.00    +0.000 OA
BRANCH  57  58
ATOM     58  C   UNL     1      18.810  19.817  44.916  0.00  0.00    +0.000 C 
ATOM     59  O   UNL     1      19.264  20.187  46.243  0.00  0.00    +0.000 OA
ATOM     60  C   UNL     1      18.374  18.332  44.942  0.00  0.00    +0.000 C 
ATOM     61  C   UNL     1      18.286  20.062  47.315  0.00  0.00    +0.000 C 
ATOM     62  C   UNL     1      17.295  18.096  46.027  0.00  0.00    +0.000 C 
ATOM     63  C   UNL     1      17.786  18.595  47.407  0.00  0.00    +0.000 C 
BRANCH  60  64
ATOM     64  O   UNL     1      19.531  17.525  45.210  0.00  0.00    +0.000 OA
ATOM     65  H   UNL     1      20.311  17.986  44.841  0.00  0.00    +0.000 HD
ENDBRANCH  60  64
BRANCH  62  66
ATOM     66  O   UNL     1      16.953  16.699  46.101  0.00  0.00    +0.000 OA
ATOM     67  H   UNL     1      16.491  16.433  45.282  0.00  0.00    +0.000 HD
ENDBRANCH  62  66
BRANCH  63  68
ATOM     68  O   UNL     1      16.709  18.486  48.347  0.00  0.00    +0.000 OA
ATOM     69  H   UNL     1      15.868  18.672  47.882  0.00  0.00    +0.000 HD
ENDBRANCH  63  68
BRANCH  61  70
ATOM     70  C   UNL     1      18.969  20.525  48.623  0.00  0.00    +0.000 C 
BRANCH  70  71
ATOM     71  O   UNL     1      18.885  19.511  49.637  0.00  0.00    +0.000 OA
ATOM     72  H   UNL     1      18.365  19.867  50.384  0.00  0.00    +0.000 HD
ENDBRANCH  70  71
ENDBRANCH  61  70
ENDBRANCH  57  58
ENDBRANCH   5  57
TORSDOF 19
ENDMDL
