MODEL 1
REMARK VINA RESULT:    -5.099      0.000      0.000
REMARK INTER + INTRA:          -5.962
REMARK INTER:                  -5.844
REMARK INTRA:                  -0.118
REMARK UNBOUND:                -0.118
REMARK  Name = opt80.pdb
REMARK  3 active torsions:
REMARK  status: ('A' for Active; 'I' for Inactive)
REMARK    1  A    between atoms: C_2  and  C_4
REMARK    2  A    between atoms: C_5  and  C_6
REMARK    3  A    between atoms: C_9  and  O_11
REMARK                            x       y       z     vdW  Elec       q    Type
REMARK                         _______ _______ _______ _____ _____    ______ ____
ROOT
ATOM      1  C   UNL     1      12.828  13.644  44.691  0.00  0.00    +0.000 A 
ATOM      2  C   UNL     1      13.258  12.322  44.549  0.00  0.00    +0.000 A 
ATOM      3  C   UNL     1      13.769  14.675  44.696  0.00  0.00    +0.000 A 
ATOM      4  C   UNL     1      14.617  12.034  44.423  0.00  0.00    +0.000 A 
ATOM      5  C   UNL     1      15.128  14.388  44.562  0.00  0.00    +0.000 A 
ATOM      6  C   UNL     1      15.551  13.068  44.427  0.00  0.00    +0.000 A 
ENDROOT
BRANCH   1   8
ATOM      7  C   UNL     1      10.379  13.534  44.041  0.00  0.00    +0.000 C 
ATOM      8  C   UNL     1      11.389  13.957  44.817  0.00  0.00    +0.000 C 
BRANCH   7  10
ATOM      9  O   UNL     1       8.428  13.635  45.251  0.00  0.00    +0.000 OA
ATOM     10  C   UNL     1       8.947  13.872  44.180  0.00  0.00    +0.000 C 
ATOM     11  O   UNL     1       8.376  14.355  43.223  0.00  0.00    +0.000 OA
ENDBRANCH   7  10
ENDBRANCH   1   8
BRANCH   4  12
ATOM     12  O   UNL     1      15.034  10.742  44.296  0.00  0.00    +0.000 OA
ATOM     13  H   UNL     1      14.288  10.146  44.490  0.00  0.00    +0.000 HD
ENDBRANCH   4  12
TORSDOF 3
ENDMDL
MODEL 2
REMARK VINA RESULT:    -4.962      1.637      1.901
REMARK INTER + INTRA:          -5.804
REMARK INTER:                  -5.684
REMARK INTRA:                  -0.120
REMARK UNBOUND:                -0.118
REMARK  Name = opt80.pdb
REMARK  3 active torsions:
REMARK  status: ('A' for Active; 'I' for Inactive)
REMARK    1  A    between atoms: C_2  and  C_4
REMARK    2  A    between atoms: C_5  and  C_6
REMARK    3  A    between atoms: C_9  and  O_11
REMARK                            x       y       z     vdW  Elec       q    Type
REMARK                         _______ _______ _______ _____ _____    ______ ____
ROOT
ATOM      1  C   UNL     1      11.960  12.605  43.442  0.00  0.00    +0.000 A 
ATOM      2  C   UNL     1      12.732  11.465  43.684  0.00  0.00    +0.000 A 
ATOM      3  C   UNL     1      12.441  13.855  43.834  0.00  0.00    +0.000 A 
ATOM      4  C   UNL     1      13.969  11.575  44.318  0.00  0.00    +0.000 A 
ATOM      5  C   UNL     1      13.682  13.967  44.461  0.00  0.00    +0.000 A 
ATOM      6  C   UNL     1      14.444  12.827  44.705  0.00  0.00    +0.000 A 
ENDROOT
BRANCH   1   8
ATOM      7  C   UNL     1       9.431  12.459  43.320  0.00  0.00    +0.000 C 
ATOM      8  C   UNL     1      10.652  12.496  42.763  0.00  0.00    +0.000 C 
BRANCH   7  10
ATOM      9  O   UNL     1       7.509  11.313  42.798  0.00  0.00    +0.000 OA
ATOM     10  C   UNL     1       8.135  12.337  42.619  0.00  0.00    +0.000 C 
ATOM     11  O   UNL     1       7.780  13.254  41.906  0.00  0.00    +0.000 OA
ENDBRANCH   7  10
ENDBRANCH   1   8
BRANCH   4  12
ATOM     12  O   UNL     1      14.716  10.460  44.562  0.00  0.00    +0.000 OA
ATOM     13  H   UNL     1      14.567   9.815  43.847  0.00  0.00    +0.000 HD
ENDBRANCH   4  12
TORSDOF 3
ENDMDL
MODEL 3
REMARK VINA RESULT:    -4.927      2.537      3.022
REMARK INTER + INTRA:          -5.765
REMARK INTER:                  -5.643
REMARK INTRA:                  -0.122
REMARK UNBOUND:                -0.118
REMARK  Name = opt80.pdb
REMARK  3 active torsions:
REMARK  status: ('A' for Active; 'I' for Inactive)
REMARK    1  A    between atoms: C_2  and  C_4
REMARK    2  A    between atoms: C_5  and  C_6
REMARK    3  A    between atoms: C_9  and  O_11
REMARK                            x       y       z     vdW  Elec       q    Type
REMARK                         _______ _______ _______ _____ _____    ______ ____
ROOT
ATOM      1  C   UNL     1      13.945  13.859  43.889  0.00  0.00    +0.000 A 
ATOM      2  C   UNL     1      14.708  13.354  44.945  0.00  0.00    +0.000 A 
ATOM      3  C   UNL     1      14.362  15.020  43.234  0.00  0.00    +0.000 A 
ATOM      4  C   UNL     1      15.873  14.008  45.348  0.00  0.00    +0.000 A 
ATOM      5  C   UNL     1      15.531  15.670  43.631  0.00  0.00    +0.000 A 
ATOM      6  C   UNL     1      16.284  15.165  44.688  0.00  0.00    +0.000 A 
ENDROOT
BRANCH   1   8
ATOM      7  C   UNL     1      12.532  12.420  42.353  0.00  0.00    +0.000 C 
ATOM      8  C   UNL     1      12.715  13.167  43.453  0.00  0.00    +0.000 C 
BRANCH   7  10
ATOM      9  O   UNL     1      11.162  11.513  40.746  0.00  0.00    +0.000 OA
ATOM     10  C   UNL     1      11.285  11.747  41.930  0.00  0.00    +0.000 C 
ATOM     11  O   UNL     1      10.461  11.478  42.782  0.00  0.00    +0.000 OA
ENDBRANCH   7  10
ENDBRANCH   1   8
BRANCH   4  12
ATOM     12  O   UNL     1      16.610  13.519  46.385  0.00  0.00    +0.000 OA
ATOM     13  H   UNL     1      16.021  13.036  46.993  0.00  0.00    +0.000 HD
ENDBRANCH   4  12
TORSDOF 3
ENDMDL
MODEL 4
REMARK VINA RESULT:    -4.864      1.626      1.947
REMARK INTER + INTRA:          -5.693
REMARK INTER:                  -5.557
REMARK INTRA:                  -0.136
REMARK UNBOUND:                -0.118
REMARK  Name = opt80.pdb
REMARK  3 active torsions:
REMARK  status: ('A' for Active; 'I' for Inactive)
REMARK    1  A    between atoms: C_2  and  C_4
REMARK    2  A    between atoms: C_5  and  C_6
REMARK    3  A    between atoms: C_9  and  O_11
REMARK                            x       y       z     vdW  Elec       q    Type
REMARK                         _______ _______ _______ _____ _____    ______ ____
ROOT
ATOM      1  C   UNL     1      13.551  13.598  44.304  0.00  0.00    +0.000 A 
ATOM      2  C   UNL     1      14.416  13.570  45.401  0.00  0.00    +0.000 A 
ATOM      3  C   UNL     1      14.081  13.653  43.013  0.00  0.00    +0.000 A 
ATOM      4  C   UNL     1      15.797  13.606  45.210  0.00  0.00    +0.000 A 
ATOM      5  C   UNL     1      15.463  13.681  42.821  0.00  0.00    +0.000 A 
ATOM      6  C   UNL     1      16.320  13.659  43.919  0.00  0.00    +0.000 A 
ENDROOT
BRANCH   1   8
ATOM      7  C   UNL     1      11.138  13.290  43.586  0.00  0.00    +0.000 C 
ATOM      8  C   UNL     1      12.087  13.552  44.499  0.00  0.00    +0.000 C 
BRANCH   7  10
ATOM      9  O   UNL     1       8.988  12.912  42.869  0.00  0.00    +0.000 OA
ATOM     10  C   UNL     1       9.676  13.263  43.804  0.00  0.00    +0.000 C 
ATOM     11  O   UNL     1       9.252  13.598  44.892  0.00  0.00    +0.000 OA
ENDBRANCH   7  10
ENDBRANCH   1   8
BRANCH   4  12
ATOM     12  O   UNL     1      16.638  13.590  46.283  0.00  0.00    +0.000 OA
ATOM     13  H   UNL     1      16.810  14.506  46.566  0.00  0.00    +0.000 HD
ENDBRANCH   4  12
TORSDOF 3
ENDMDL
MODEL 5
REMARK VINA RESULT:    -4.782      2.540      5.384
REMARK INTER + INTRA:          -5.599
REMARK INTER:                  -5.475
REMARK INTRA:                  -0.124
REMARK UNBOUND:                -0.118
REMARK  Name = opt80.pdb
REMARK  3 active torsions:
REMARK  status: ('A' for Active; 'I' for Inactive)
REMARK    1  A    between atoms: C_2  and  C_4
REMARK    2  A    between atoms: C_5  and  C_6
REMARK    3  A    between atoms: C_9  and  O_11
REMARK                            x       y       z     vdW  Elec       q    Type
REMARK                         _______ _______ _______ _____ _____    ______ ____
ROOT
ATOM      1  C   UNL     1      13.093  13.004  43.867  0.00  0.00    +0.000 A 
ATOM      2  C   UNL     1      12.816  12.373  42.652  0.00  0.00    +0.000 A 
ATOM      3  C   UNL     1      12.060  13.631  44.566  0.00  0.00    +0.000 A 
ATOM      4  C   UNL     1      11.520  12.375  42.137  0.00  0.00    +0.000 A 
ATOM      5  C   UNL     1      10.762  13.627  44.055  0.00  0.00    +0.000 A 
ATOM      6  C   UNL     1      10.493  13.001  42.841  0.00  0.00    +0.000 A 
ENDROOT
BRANCH   1   8
ATOM      7  C   UNL     1      15.200  14.048  44.818  0.00  0.00    +0.000 C 
ATOM      8  C   UNL     1      14.463  12.998  44.422  0.00  0.00    +0.000 C 
BRANCH   7  10
ATOM      9  O   UNL     1      16.698  13.739  46.533  0.00  0.00    +0.000 OA
ATOM     10  C   UNL     1      16.576  14.017  45.358  0.00  0.00    +0.000 C 
ATOM     11  O   UNL     1      17.494  14.276  44.606  0.00  0.00    +0.000 OA
ENDBRANCH   7  10
ENDBRANCH   1   8
BRANCH   4  12
ATOM     12  O   UNL     1      11.255  11.767  40.945  0.00  0.00    +0.000 OA
ATOM     13  H   UNL     1      11.751  10.929  40.899  0.00  0.00    +0.000 HD
ENDBRANCH   4  12
TORSDOF 3
ENDMDL
MODEL 6
REMARK VINA RESULT:    -4.680      3.067      6.262
REMARK INTER + INTRA:          -5.482
REMARK INTER:                  -5.361
REMARK INTRA:                  -0.121
REMARK UNBOUND:                -0.118
REMARK  Name = opt80.pdb
REMARK  3 active torsions:
REMARK  status: ('A' for Active; 'I' for Inactive)
REMARK    1  A    between atoms: C_2  and  C_4
REMARK    2  A    between atoms: C_5  and  C_6
REMARK    3  A    between atoms: C_9  and  O_11
REMARK                            x       y       z     vdW  Elec       q    Type
REMARK                         _______ _______ _______ _____ _____    ______ ____
ROOT
ATOM      1  C   UNL     1      15.084  14.593  44.659  0.00  0.00    +0.000 A 
ATOM      2  C   UNL     1      14.853  13.218  44.733  0.00  0.00    +0.000 A 
ATOM      3  C   UNL     1      13.999  15.470  44.602  0.00  0.00    +0.000 A 
ATOM      4  C   UNL     1      13.549  12.722  44.740  0.00  0.00    +0.000 A 
ATOM      5  C   UNL     1      12.694  14.976  44.616  0.00  0.00    +0.000 A 
ATOM      6  C   UNL     1      12.470  13.603  44.684  0.00  0.00    +0.000 A 
ENDROOT
BRANCH   1   8
ATOM      7  C   UNL     1      17.615  14.437  44.688  0.00  0.00    +0.000 C 
ATOM      8  C   UNL     1      16.463  15.125  44.660  0.00  0.00    +0.000 C 
BRANCH   7  10
ATOM      9  O   UNL     1      19.086  16.201  44.667  0.00  0.00    +0.000 OA
ATOM     10  C   UNL     1      18.985  14.993  44.702  0.00  0.00    +0.000 C 
ATOM     11  O   UNL     1      19.918  14.217  44.738  0.00  0.00    +0.000 OA
ENDBRANCH   7  10
ENDBRANCH   1   8
BRANCH   4  12
ATOM     12  O   UNL     1      13.326  11.378  44.801  0.00  0.00    +0.000 OA
ATOM     13  H   UNL     1      12.395  11.221  45.043  0.00  0.00    +0.000 HD
ENDBRANCH   4  12
TORSDOF 3
ENDMDL
MODEL 7
REMARK VINA RESULT:    -4.603      2.233      5.553
REMARK INTER + INTRA:          -5.393
REMARK INTER:                  -5.267
REMARK INTRA:                  -0.127
REMARK UNBOUND:                -0.118
REMARK  Name = opt80.pdb
REMARK  3 active torsions:
REMARK  status: ('A' for Active; 'I' for Inactive)
REMARK    1  A    between atoms: C_2  and  C_4
REMARK    2  A    between atoms: C_5  and  C_6
REMARK    3  A    between atoms: C_9  and  O_11
REMARK                            x       y       z     vdW  Elec       q    Type
REMARK                         _______ _______ _______ _____ _____    ______ ____
ROOT
ATOM      1  C   UNL     1      13.003  13.231  44.482  0.00  0.00    +0.000 A 
ATOM      2  C   UNL     1      11.803  13.859  44.826  0.00  0.00    +0.000 A 
ATOM      3  C   UNL     1      13.011  12.279  43.462  0.00  0.00    +0.000 A 
ATOM      4  C   UNL     1      10.621  13.532  44.161  0.00  0.00    +0.000 A 
ATOM      5  C   UNL     1      11.831  11.956  42.791  0.00  0.00    +0.000 A 
ATOM      6  C   UNL     1      10.637  12.581  43.142  0.00  0.00    +0.000 A 
ENDROOT
BRANCH   1   8
ATOM      7  C   UNL     1      15.347  14.181  44.670  0.00  0.00    +0.000 C 
ATOM      8  C   UNL     1      14.259  13.580  45.177  0.00  0.00    +0.000 C 
BRANCH   7  10
ATOM      9  O   UNL     1      16.903  13.790  46.314  0.00  0.00    +0.000 OA
ATOM     10  C   UNL     1      16.600  14.507  45.384  0.00  0.00    +0.000 C 
ATOM     11  O   UNL     1      17.241  15.467  45.007  0.00  0.00    +0.000 OA
ENDBRANCH   7  10
ENDBRANCH   1   8
BRANCH   4  12
ATOM     12  O   UNL     1       9.450  14.139  44.506  0.00  0.00    +0.000 OA
ATOM     13  H   UNL     1       9.639  14.867  45.126  0.00  0.00    +0.000 HD
ENDBRANCH   4  12
TORSDOF 3
ENDMDL
MODEL 8
REMARK VINA RESULT:    -4.554      2.732      3.372
REMARK INTER + INTRA:          -5.337
REMARK INTER:                  -5.217
REMARK INTRA:                  -0.120
REMARK UNBOUND:                -0.118
REMARK  Name = opt80.pdb
REMARK  3 active torsions:
REMARK  status: ('A' for Active; 'I' for Inactive)
REMARK    1  A    between atoms: C_2  and  C_4
REMARK    2  A    between atoms: C_5  and  C_6
REMARK    3  A    between atoms: C_9  and  O_11
REMARK                            x       y       z     vdW  Elec       q    Type
REMARK                         _______ _______ _______ _____ _____    ______ ____
ROOT
ATOM      1  C   UNL     1      14.698  13.320  43.886  0.00  0.00    +0.000 A 
ATOM      2  C   UNL     1      15.667  13.616  42.924  0.00  0.00    +0.000 A 
ATOM      3  C   UNL     1      15.007  13.468  45.239  0.00  0.00    +0.000 A 
ATOM      4  C   UNL     1      16.936  14.048  43.312  0.00  0.00    +0.000 A 
ATOM      5  C   UNL     1      16.272  13.908  45.628  0.00  0.00    +0.000 A 
ATOM      6  C   UNL     1      17.236  14.196  44.665  0.00  0.00    +0.000 A 
ENDROOT
BRANCH   1   8
ATOM      7  C   UNL     1      12.932  12.507  42.258  0.00  0.00    +0.000 C 
ATOM      8  C   UNL     1      13.351  12.869  43.481  0.00  0.00    +0.000 C 
BRANCH   7  10
ATOM      9  O   UNL     1      11.429  11.644  40.749  0.00  0.00    +0.000 OA
ATOM     10  C   UNL     1      11.572  12.072  41.875  0.00  0.00    +0.000 C 
ATOM     11  O   UNL     1      10.684  12.174  42.698  0.00  0.00    +0.000 OA
ENDBRANCH   7  10
ENDBRANCH   1   8
BRANCH   4  12
ATOM     12  O   UNL     1      17.883  14.326  42.371  0.00  0.00    +0.000 OA
ATOM     13  H   UNL     1      18.582  13.649  42.415  0.00  0.00    +0.000 HD
ENDBRANCH   4  12
TORSDOF 3
ENDMDL
MODEL 9
REMARK VINA RESULT:    -4.549      3.355      4.973
REMARK INTER + INTRA:          -5.332
REMARK INTER:                  -5.214
REMARK INTRA:                  -0.118
REMARK UNBOUND:                -0.118
REMARK  Name = opt80.pdb
REMARK  3 active torsions:
REMARK  status: ('A' for Active; 'I' for Inactive)
REMARK    1  A    between atoms: C_2  and  C_4
REMARK    2  A    between atoms: C_5  and  C_6
REMARK    3  A    between atoms: C_9  and  O_11
REMARK                            x       y       z     vdW  Elec       q    Type
REMARK                         _______ _______ _______ _____ _____    ______ ____
ROOT
ATOM      1  C   UNL     1      13.893  14.004  44.358  0.00  0.00    +0.000 A 
ATOM      2  C   UNL     1      14.587  12.832  44.670  0.00  0.00    +0.000 A 
ATOM      3  C   UNL     1      12.685  13.923  43.664  0.00  0.00    +0.000 A 
ATOM      4  C   UNL     1      14.081  11.591  44.285  0.00  0.00    +0.000 A 
ATOM      5  C   UNL     1      12.174  12.682  43.285  0.00  0.00    +0.000 A 
ATOM      6  C   UNL     1      12.873  11.517  43.593  0.00  0.00    +0.000 A 
ENDROOT
BRANCH   1   8
ATOM      7  C   UNL     1      15.703  15.695  44.906  0.00  0.00    +0.000 C 
ATOM      8  C   UNL     1      14.420  15.322  44.771  0.00  0.00    +0.000 C 
BRANCH   7  10
ATOM      9  O   UNL     1      17.184  17.027  46.051  0.00  0.00    +0.000 OA
ATOM     10  C   UNL     1      16.205  17.018  45.335  0.00  0.00    +0.000 C 
ATOM     11  O   UNL     1      15.610  18.007  44.957  0.00  0.00    +0.000 OA
ENDBRANCH   7  10
ENDBRANCH   1   8
BRANCH   4  12
ATOM     12  O   UNL     1      14.765  10.450  44.581  0.00  0.00    +0.000 OA
ATOM     13  H   UNL     1      14.325  10.000  45.326  0.00  0.00    +0.000 HD
ENDBRANCH   4  12
TORSDOF 3
ENDMDL
MODEL 10
REMARK VINA RESULT:    -4.402      2.899      3.546
REMARK INTER + INTRA:          -5.163
REMARK INTER:                  -5.044
REMARK INTRA:                  -0.119
REMARK UNBOUND:                -0.118
REMARK  Name = opt80.pdb
REMARK  3 active torsions:
REMARK  status: ('A' for Active; 'I' for Inactive)
REMARK    1  A    between atoms: C_2  and  C_4
REMARK    2  A    between atoms: C_5  and  C_6
REMARK    3  A    between atoms: C_9  and  O_11
REMARK                            x       y       z     vdW  Elec       q    Type
REMARK                         _______ _______ _______ _____ _____    ______ ____
ROOT
ATOM      1  C   UNL     1      13.882  13.504  44.074  0.00  0.00    +0.000 A 
ATOM      2  C   UNL     1      13.807  14.900  44.067  0.00  0.00    +0.000 A 
ATOM      3  C   UNL     1      15.014  12.880  44.600  0.00  0.00    +0.000 A 
ATOM      4  C   UNL     1      14.859  15.663  44.574  0.00  0.00    +0.000 A 
ATOM      5  C   UNL     1      16.063  13.642  45.114  0.00  0.00    +0.000 A 
ATOM      6  C   UNL     1      15.986  15.033  45.100  0.00  0.00    +0.000 A 
ENDROOT
BRANCH   1   8
ATOM      7  C   UNL     1      12.423  12.492  42.264  0.00  0.00    +0.000 C 
ATOM      8  C   UNL     1      12.768  12.690  43.546  0.00  0.00    +0.000 C 
BRANCH   7  10
ATOM      9  O   UNL     1      11.339  11.339  40.597  0.00  0.00    +0.000 OA
ATOM     10  C   UNL     1      11.293  11.681  41.760  0.00  0.00    +0.000 C 
ATOM     11  O   UNL     1      10.392  11.415  42.529  0.00  0.00    +0.000 OA
ENDBRANCH   7  10
ENDBRANCH   1   8
BRANCH   4  12
ATOM     12  O   UNL     1      14.788  17.025  44.557  0.00  0.00    +0.000 OA
ATOM     13  H   UNL     1      15.417  17.384  45.209  0.00  0.00    +0.000 HD
ENDBRANCH   4  12
TORSDOF 3
ENDMDL
MODEL 11
REMARK VINA RESULT:    -4.311      2.915      6.570
REMARK INTER + INTRA:          -5.059
REMARK INTER:                  -4.941
REMARK INTRA:                  -0.118
REMARK UNBOUND:                -0.118
REMARK  Name = opt80.pdb
REMARK  3 active torsions:
REMARK  status: ('A' for Active; 'I' for Inactive)
REMARK    1  A    between atoms: C_2  and  C_4
REMARK    2  A    between atoms: C_5  and  C_6
REMARK    3  A    between atoms: C_9  and  O_11
REMARK                            x       y       z     vdW  Elec       q    Type
REMARK                         _______ _______ _______ _____ _____    ______ ____
ROOT
ATOM      1  C   UNL     1       7.926  13.062  43.550  0.00  0.00    +0.000 A 
ATOM      2  C   UNL     1       7.882  12.555  42.249  0.00  0.00    +0.000 A 
ATOM      3  C   UNL     1       6.733  13.309  44.232  0.00  0.00    +0.000 A 
ATOM      4  C   UNL     1       6.655  12.305  41.632  0.00  0.00    +0.000 A 
ATOM      5  C   UNL     1       5.507  13.052  43.619  0.00  0.00    +0.000 A 
ATOM      6  C   UNL     1       5.468  12.552  42.320  0.00  0.00    +0.000 A 
ENDROOT
BRANCH   1   8
ATOM      7  C   UNL     1      10.431  13.449  43.642  0.00  0.00    +0.000 C 
ATOM      8  C   UNL     1       9.222  13.322  44.211  0.00  0.00    +0.000 C 
BRANCH   7  10
ATOM      9  O   UNL     1      12.441  12.737  44.497  0.00  0.00    +0.000 OA
ATOM     10  C   UNL     1      11.717  13.696  44.328  0.00  0.00    +0.000 C 
ATOM     11  O   UNL     1      11.969  14.829  44.685  0.00  0.00    +0.000 OA
ENDBRANCH   7  10
ENDBRANCH   1   8
BRANCH   4  12
ATOM     12  O   UNL     1       6.615  11.820  40.359  0.00  0.00    +0.000 OA
ATOM     13  H   UNL     1       7.513  11.553  40.091  0.00  0.00    +0.000 HD
ENDBRANCH   4  12
TORSDOF 3
ENDMDL
MODEL 12
REMARK VINA RESULT:    -4.280      2.167      2.609
REMARK INTER + INTRA:          -5.024
REMARK INTER:                  -4.899
REMARK INTRA:                  -0.125
REMARK UNBOUND:                -0.118
REMARK  Name = opt80.pdb
REMARK  3 active torsions:
REMARK  status: ('A' for Active; 'I' for Inactive)
REMARK    1  A    between atoms: C_2  and  C_4
REMARK    2  A    between atoms: C_5  and  C_6
REMARK    3  A    between atoms: C_9  and  O_11
REMARK                            x       y       z     vdW  Elec       q    Type
REMARK                         _______ _______ _______ _____ _____    ______ ____
ROOT
ATOM      1  C   UNL     1      12.867  14.040  44.651  0.00  0.00    +0.000 A 
ATOM      2  C   UNL     1      13.303  15.362  44.544  0.00  0.00    +0.000 A 
ATOM      3  C   UNL     1      13.788  13.034  44.949  0.00  0.00    +0.000 A 
ATOM      4  C   UNL     1      14.651  15.676  44.726  0.00  0.00    +0.000 A 
ATOM      5  C   UNL     1      15.134  13.348  45.138  0.00  0.00    +0.000 A 
ATOM      6  C   UNL     1      15.565  14.667  45.025  0.00  0.00    +0.000 A 
ENDROOT
BRANCH   1   8
ATOM      7  C   UNL     1      10.889  12.919  43.527  0.00  0.00    +0.000 C 
ATOM      8  C   UNL     1      11.439  13.703  44.467  0.00  0.00    +0.000 C 
BRANCH   7  10
ATOM      9  O   UNL     1       8.674  13.206  44.066  0.00  0.00    +0.000 OA
ATOM     10  C   UNL     1       9.454  12.607  43.356  0.00  0.00    +0.000 C 
ATOM     11  O   UNL     1       9.143  11.774  42.529  0.00  0.00    +0.000 OA
ENDBRANCH   7  10
ENDBRANCH   1   8
BRANCH   4  12
ATOM     12  O   UNL     1      15.076  16.966  44.611  0.00  0.00    +0.000 OA
ATOM     13  H   UNL     1      15.855  16.993  44.026  0.00  0.00    +0.000 HD
ENDBRANCH   4  12
TORSDOF 3
ENDMDL
MODEL 13
REMARK VINA RESULT:    -4.276      1.416      1.702
REMARK INTER + INTRA:          -5.019
REMARK INTER:                  -4.902
REMARK INTRA:                  -0.117
REMARK UNBOUND:                -0.118
REMARK  Name = opt80.pdb
REMARK  3 active torsions:
REMARK  status: ('A' for Active; 'I' for Inactive)
REMARK    1  A    between atoms: C_2  and  C_4
REMARK    2  A    between atoms: C_5  and  C_6
REMARK    3  A    between atoms: C_9  and  O_11
REMARK                            x       y       z     vdW  Elec       q    Type
REMARK                         _______ _______ _______ _____ _____    ______ ____
ROOT
ATOM      1  C   UNL     1      11.698  13.415  44.013  0.00  0.00    +0.000 A 
ATOM      2  C   UNL     1      12.491  12.327  43.642  0.00  0.00    +0.000 A 
ATOM      3  C   UNL     1      12.281  14.493  44.682  0.00  0.00    +0.000 A 
ATOM      4  C   UNL     1      13.853  12.312  43.944  0.00  0.00    +0.000 A 
ATOM      5  C   UNL     1      13.644  14.483  44.979  0.00  0.00    +0.000 A 
ATOM      6  C   UNL     1      14.429  13.392  44.611  0.00  0.00    +0.000 A 
ENDROOT
BRANCH   1   8
ATOM      7  C   UNL     1       9.393  12.413  43.676  0.00  0.00    +0.000 C 
ATOM      8  C   UNL     1      10.257  13.440  43.689  0.00  0.00    +0.000 C 
BRANCH   7  10
ATOM      9  O   UNL     1       7.555  11.646  42.530  0.00  0.00    +0.000 OA
ATOM     10  C   UNL     1       7.956  12.461  43.334  0.00  0.00    +0.000 C 
ATOM     11  O   UNL     1       7.268  13.310  43.865  0.00  0.00    +0.000 OA
ENDBRANCH   7  10
ENDBRANCH   1   8
BRANCH   4  12
ATOM     12  O   UNL     1      14.623  11.244  43.590  0.00  0.00    +0.000 OA
ATOM     13  H   UNL     1      14.753  11.252  42.624  0.00  0.00    +0.000 HD
ENDBRANCH   4  12
TORSDOF 3
ENDMDL
MODEL 14
REMARK VINA RESULT:    -4.263      1.892      2.025
REMARK INTER + INTRA:          -5.004
REMARK INTER:                  -4.868
REMARK INTRA:                  -0.136
REMARK UNBOUND:                -0.118
REMARK  Name = opt80.pdb
REMARK  3 active torsions:
REMARK  status: ('A' for Active; 'I' for Inactive)
REMARK    1  A    between atoms: C_2  and  C_4
REMARK    2  A    between atoms: C_5  and  C_6
REMARK    3  A    between atoms: C_9  and  O_11
REMARK                            x       y       z     vdW  Elec       q    Type
REMARK                         _______ _______ _______ _____ _____    ______ ____
ROOT
ATOM      1  C   UNL     1      13.127  13.217  43.412  0.00  0.00    +0.000 A 
ATOM      2  C   UNL     1      14.235  13.275  42.563  0.00  0.00    +0.000 A 
ATOM      3  C   UNL     1      13.311  13.335  44.791  0.00  0.00    +0.000 A 
ATOM      4  C   UNL     1      15.516  13.441  43.089  0.00  0.00    +0.000 A 
ATOM      5  C   UNL     1      14.591  13.508  45.317  0.00  0.00    +0.000 A 
ATOM      6  C   UNL     1      15.693  13.560  44.467  0.00  0.00    +0.000 A 
ENDROOT
BRANCH   1   8
ATOM      7  C   UNL     1      10.633  12.768  43.523  0.00  0.00    +0.000 C 
ATOM      8  C   UNL     1      11.766  13.049  42.860  0.00  0.00    +0.000 C 
BRANCH   7  10
ATOM      9  O   UNL     1       8.353  12.561  43.724  0.00  0.00    +0.000 OA
ATOM     10  C   UNL     1       9.284  12.591  42.946  0.00  0.00    +0.000 C 
ATOM     11  O   UNL     1       9.186  12.479  41.740  0.00  0.00    +0.000 OA
ENDBRANCH   7  10
ENDBRANCH   1   8
BRANCH   4  12
ATOM     12  O   UNL     1      16.597  13.488  42.260  0.00  0.00    +0.000 OA
ATOM     13  H   UNL     1      16.294  13.673  41.352  0.00  0.00    +0.000 HD
ENDBRANCH   4  12
TORSDOF 3
ENDMDL
MODEL 15
REMARK VINA RESULT:    -4.230      2.423      3.167
REMARK INTER + INTRA:          -4.966
REMARK INTER:                  -4.843
REMARK INTRA:                  -0.123
REMARK UNBOUND:                -0.118
REMARK  Name = opt80.pdb
REMARK  3 active torsions:
REMARK  status: ('A' for Active; 'I' for Inactive)
REMARK    1  A    between atoms: C_2  and  C_4
REMARK    2  A    between atoms: C_5  and  C_6
REMARK    3  A    between atoms: C_9  and  O_11
REMARK                            x       y       z     vdW  Elec       q    Type
REMARK                         _______ _______ _______ _____ _____    ______ ____
ROOT
ATOM      1  C   UNL     1      11.498  14.359  44.568  0.00  0.00    +0.000 A 
ATOM      2  C   UNL     1      11.661  15.747  44.536  0.00  0.00    +0.000 A 
ATOM      3  C   UNL     1      12.623  13.538  44.666  0.00  0.00    +0.000 A 
ATOM      4  C   UNL     1      12.937  16.307  44.592  0.00  0.00    +0.000 A 
ATOM      5  C   UNL     1      13.899  14.098  44.729  0.00  0.00    +0.000 A 
ATOM      6  C   UNL     1      14.056  15.482  44.691  0.00  0.00    +0.000 A 
ENDROOT
BRANCH   1   8
ATOM      7  C   UNL     1       9.625  12.980  43.558  0.00  0.00    +0.000 C 
ATOM      8  C   UNL     1      10.149  13.759  44.517  0.00  0.00    +0.000 C 
BRANCH   7  10
ATOM      9  O   UNL     1       7.362  13.100  43.935  0.00  0.00    +0.000 OA
ATOM     10  C   UNL     1       8.265  12.402  43.524  0.00  0.00    +0.000 C 
ATOM     11  O   UNL     1       8.133  11.272  43.098  0.00  0.00    +0.000 OA
ENDBRANCH   7  10
ENDBRANCH   1   8
BRANCH   4  12
ATOM     12  O   UNL     1      13.093  17.661  44.550  0.00  0.00    +0.000 OA
ATOM     13  H   UNL     1      13.478  17.963  45.393  0.00  0.00    +0.000 HD
ENDBRANCH   4  12
TORSDOF 3
ENDMDL
MODEL 16
REMARK VINA RESULT:    -4.230      1.347      1.559
REMARK INTER + INTRA:          -4.966
REMARK INTER:                  -4.843
REMARK INTRA:                  -0.123
REMARK UNBOUND:                -0.118
REMARK  Name = opt80.pdb
REMARK  3 active torsions:
REMARK  status: ('A' for Active; 'I' for Inactive)
REMARK    1  A    between atoms: C_2  and  C_4
REMARK    2  A    between atoms: C_5  and  C_6
REMARK    3  A    between atoms: C_9  and  O_11
REMARK                            x       y       z     vdW  Elec       q    Type
REMARK                         _______ _______ _______ _____ _____    ______ ____
ROOT
ATOM      1  C   UNL     1      12.771  14.117  44.510  0.00  0.00    +0.000 A 
ATOM      2  C   UNL     1      12.960  12.733  44.510  0.00  0.00    +0.000 A 
ATOM      3  C   UNL     1      13.882  14.962  44.521  0.00  0.00    +0.000 A 
ATOM      4  C   UNL     1      14.249  12.199  44.530  0.00  0.00    +0.000 A 
ATOM      5  C   UNL     1      15.171  14.429  44.533  0.00  0.00    +0.000 A 
ATOM      6  C   UNL     1      15.354  13.048  44.539  0.00  0.00    +0.000 A 
ENDROOT
BRANCH   1   8
ATOM      7  C   UNL     1      10.849  15.448  43.526  0.00  0.00    +0.000 C 
ATOM      8  C   UNL     1      11.408  14.689  44.481  0.00  0.00    +0.000 C 
BRANCH   7  10
ATOM      9  O   UNL     1       9.400  17.231  43.538  0.00  0.00    +0.000 OA
ATOM     10  C   UNL     1       9.486  16.021  43.527  0.00  0.00    +0.000 C 
ATOM     11  O   UNL     1       8.543  15.255  43.524  0.00  0.00    +0.000 OA
ENDBRANCH   7  10
ENDBRANCH   1   8
BRANCH   4  12
ATOM     12  O   UNL     1      14.431  10.847  44.540  0.00  0.00    +0.000 OA
ATOM     13  H   UNL     1      14.974  10.606  45.313  0.00  0.00    +0.000 HD
ENDBRANCH   4  12
TORSDOF 3
ENDMDL
MODEL 17
REMARK VINA RESULT:    -4.198      3.308      5.331
REMARK INTER + INTRA:          -4.930
REMARK INTER:                  -4.811
REMARK INTRA:                  -0.119
REMARK UNBOUND:                -0.118
REMARK  Name = opt80.pdb
REMARK  3 active torsions:
REMARK  status: ('A' for Active; 'I' for Inactive)
REMARK    1  A    between atoms: C_2  and  C_4
REMARK    2  A    between atoms: C_5  and  C_6
REMARK    3  A    between atoms: C_9  and  O_11
REMARK                            x       y       z     vdW  Elec       q    Type
REMARK                         _______ _______ _______ _____ _____    ______ ____
ROOT
ATOM      1  C   UNL     1      16.885  14.494  45.022  0.00  0.00    +0.000 A 
ATOM      2  C   UNL     1      16.274  15.590  45.635  0.00  0.00    +0.000 A 
ATOM      3  C   UNL     1      18.192  14.613  44.547  0.00  0.00    +0.000 A 
ATOM      4  C   UNL     1      16.961  16.797  45.764  0.00  0.00    +0.000 A 
ATOM      5  C   UNL     1      18.883  15.817  44.683  0.00  0.00    +0.000 A 
ATOM      6  C   UNL     1      18.267  16.909  45.290  0.00  0.00    +0.000 A 
ENDROOT
BRANCH   1   8
ATOM      7  C   UNL     1      14.908  13.006  44.465  0.00  0.00    +0.000 C 
ATOM      8  C   UNL     1      16.165  13.210  44.889  0.00  0.00    +0.000 C 
BRANCH   7  10
ATOM      9  O   UNL     1      14.895  10.713  44.313  0.00  0.00    +0.000 OA
ATOM     10  C   UNL     1      14.205  11.710  44.353  0.00  0.00    +0.000 C 
ATOM     11  O   UNL     1      12.992  11.719  44.301  0.00  0.00    +0.000 OA
ENDBRANCH   7  10
ENDBRANCH   1   8
BRANCH   4  12
ATOM     12  O   UNL     1      16.359  17.869  46.354  0.00  0.00    +0.000 OA
ATOM     13  H   UNL     1      15.403  17.841  46.163  0.00  0.00    +0.000 HD
ENDBRANCH   4  12
TORSDOF 3
ENDMDL
MODEL 18
REMARK VINA RESULT:    -4.088      3.099      6.594
REMARK INTER + INTRA:          -4.803
REMARK INTER:                  -4.676
REMARK INTRA:                  -0.127
REMARK UNBOUND:                -0.118
REMARK  Name = opt80.pdb
REMARK  3 active torsions:
REMARK  status: ('A' for Active; 'I' for Inactive)
REMARK    1  A    between atoms: C_2  and  C_4
REMARK    2  A    between atoms: C_5  and  C_6
REMARK    3  A    between atoms: C_9  and  O_11
REMARK                            x       y       z     vdW  Elec       q    Type
REMARK                         _______ _______ _______ _____ _____    ______ ____
ROOT
ATOM      1  C   UNL     1      15.095  14.406  44.749  0.00  0.00    +0.000 A 
ATOM      2  C   UNL     1      14.139  15.420  44.649  0.00  0.00    +0.000 A 
ATOM      3  C   UNL     1      14.678  13.077  44.844  0.00  0.00    +0.000 A 
ATOM      4  C   UNL     1      12.779  15.108  44.654  0.00  0.00    +0.000 A 
ATOM      5  C   UNL     1      13.319  12.764  44.842  0.00  0.00    +0.000 A 
ATOM      6  C   UNL     1      12.370  13.779  44.748  0.00  0.00    +0.000 A 
ENDROOT
BRANCH   1   8
ATOM      7  C   UNL     1      17.483  14.259  43.908  0.00  0.00    +0.000 C 
ATOM      8  C   UNL     1      16.537  14.729  44.736  0.00  0.00    +0.000 C 
BRANCH   7  10
ATOM      9  O   UNL     1      19.368  15.158  42.950  0.00  0.00    +0.000 OA
ATOM     10  C   UNL     1      18.924  14.587  43.925  0.00  0.00    +0.000 C 
ATOM     11  O   UNL     1      19.575  14.264  44.898  0.00  0.00    +0.000 OA
ENDBRANCH   7  10
ENDBRANCH   1   8
BRANCH   4  12
ATOM     12  O   UNL     1      11.848  16.101  44.568  0.00  0.00    +0.000 OA
ATOM     13  H   UNL     1      11.852  16.463  43.663  0.00  0.00    +0.000 HD
ENDBRANCH   4  12
TORSDOF 3
ENDMDL
MODEL 19
REMARK VINA RESULT:    -3.977      3.207      5.013
REMARK INTER + INTRA:          -4.676
REMARK INTER:                  -4.554
REMARK INTRA:                  -0.122
REMARK UNBOUND:                -0.118
REMARK  Name = opt80.pdb
REMARK  3 active torsions:
REMARK  status: ('A' for Active; 'I' for Inactive)
REMARK    1  A    between atoms: C_2  and  C_4
REMARK    2  A    between atoms: C_5  and  C_6
REMARK    3  A    between atoms: C_9  and  O_11
REMARK                            x       y       z     vdW  Elec       q    Type
REMARK                         _______ _______ _______ _____ _____    ______ ____
ROOT
ATOM      1  C   UNL     1      16.942  14.453  44.809  0.00  0.00    +0.000 A 
ATOM      2  C   UNL     1      18.038  14.422  43.943  0.00  0.00    +0.000 A 
ATOM      3  C   UNL     1      16.759  15.556  45.646  0.00  0.00    +0.000 A 
ATOM      4  C   UNL     1      18.947  15.479  43.920  0.00  0.00    +0.000 A 
ATOM      5  C   UNL     1      17.664  16.618  45.618  0.00  0.00    +0.000 A 
ATOM      6  C   UNL     1      18.758  16.578  44.757  0.00  0.00    +0.000 A 
ENDROOT
BRANCH   1   8
ATOM      7  C   UNL     1      14.709  13.333  44.375  0.00  0.00    +0.000 C 
ATOM      8  C   UNL     1      15.971  13.340  44.833  0.00  0.00    +0.000 C 
BRANCH   7  10
ATOM      9  O   UNL     1      12.573  12.493  44.495  0.00  0.00    +0.000 OA
ATOM     10  C   UNL     1      13.750  12.208  44.423  0.00  0.00    +0.000 C 
ATOM     11  O   UNL     1      14.192  11.077  44.395  0.00  0.00    +0.000 OA
ENDBRANCH   7  10
ENDBRANCH   1   8
BRANCH   4  12
ATOM     12  O   UNL     1      20.022  15.441  43.082  0.00  0.00    +0.000 OA
ATOM     13  H   UNL     1      20.385  16.341  42.989  0.00  0.00    +0.000 HD
ENDBRANCH   4  12
TORSDOF 3
ENDMDL
