@<TRIPOS>MOLECULE
4
 14 14 0 0 0
SMALL
GASTEIGER

@<TRIPOS>ATOM
      1 O           1.6336   -1.4009   -0.0346 O.3     1  UNL1       -0.5033
      2 C           0.4655   -0.6954   -0.0403 C.ar    1  UNL1        0.1582
      3 C           0.4774    0.7001    0.0435 C.ar    1  UNL1        0.1582
      4 C          -0.7492   -1.3780   -0.0956 C.ar    1  UNL1       -0.0165
      5 O           1.6577    1.3850    0.0380 O.3     1  UNL1       -0.5033
      6 C          -0.7252    1.4036    0.0982 C.ar    1  UNL1       -0.0165
      7 C          -1.9502   -0.6718   -0.0501 C.ar    1  UNL1       -0.0581
      8 C          -1.9382    0.7183    0.0523 C.ar    1  UNL1       -0.0581
      9 H           2.2882   -0.9309    0.5138 H       1  UNL1        0.2923
     10 H          -0.7611   -2.4634   -0.1618 H       1  UNL1        0.0655
     11 H           2.3045    0.9024   -0.5088 H       1  UNL1        0.2923
     12 H          -0.7184    2.4891    0.1643 H       1  UNL1        0.0655
     13 H          -2.8961   -1.2065   -0.0885 H       1  UNL1        0.0619
     14 H          -2.8748    1.2693    0.0903 H       1  UNL1        0.0619
@<TRIPOS>BOND
     1     1     2    1
     2     2     3   ar
     3     2     4   ar
     4     3     5    1
     5     3     6   ar
     6     4     7   ar
     7     6     8   ar
     8     7     8   ar
     9     1     9    1
    10     4    10    1
    11     5    11    1
    12     6    12    1
    13     7    13    1
    14     8    14    1
@<TRIPOS>MOLECULE
5
 55 58 0 0 0
SMALL
GASTEIGER

@<TRIPOS>ATOM
      1 O           0.9208   -0.0336    0.5504 O.2     1  UNL1       -0.2865
      2 C           2.1006   -0.1137    0.2805 C.2     1  UNL1        0.1984
      3 C           2.9121    1.1706    0.1788 C.ar    1  UNL1        0.0785
      4 C           2.7692   -1.4691    0.1282 C.ar    1  UNL1        0.0371
      5 C           2.2819    2.4349    0.1593 C.ar    1  UNL1        0.1378
      6 C           4.3091    1.1179    0.1107 C.ar    1  UNL1        0.0816
      7 C           4.1674   -1.4781    0.0664 C.ar    1  UNL1        0.0369
      8 C           2.0623   -2.7133    0.0690 C.ar    1  UNL1       -0.0215
      9 O           0.9145    2.5361    0.0857 O.3     1  UNL1       -0.5055
     10 C           3.0134    3.6340    0.1491 C.ar    1  UNL1        0.0708
     11 C           4.9921   -0.2225    0.0737 C.2     1  UNL1        0.1984
     12 C           5.0460    2.3203    0.0818 C.ar    1  UNL1        0.1705
     13 C           4.8459   -2.6884    0.0038 C.ar    1  UNL1       -0.0078
     14 C           2.7708   -3.9531    0.0659 C.ar    1  UNL1        0.1037
     15 C           0.5330   -2.7592   -0.0906 C.3     1  UNL1       -0.0381
     16 C           4.4134    3.5626    0.1114 C.ar    1  UNL1        0.1684
     17 C           2.1911    4.9371    0.2058 C.3     1  UNL1        0.1194
     18 O           6.2046   -0.3152    0.0277 O.2     1  UNL1       -0.2865
     19 O           6.4129    2.3303    0.0087 O.3     1  UNL1       -0.5028
     20 C           4.1745   -3.8974    0.0126 C.ar    1  UNL1        0.1318
     21 C           2.0726   -5.3256    0.1356 C.2     1  UNL1        0.3406
     22 O           5.2066    4.6764    0.0592 O.3     1  UNL1       -0.5030
     23 O           1.5759    5.0162    1.5199 O.3     1  UNL1       -0.3609
     24 C           2.8278    6.3232   -0.0422 C.3     1  UNL1        0.1139
     25 O           4.9549   -5.0117   -0.0364 O.3     1  UNL1       -0.5059
     26 O           0.8811   -5.4996    0.2863 O.2     1  UNL1       -0.2450
     27 O           2.8280   -6.3984    0.0895 O.3     1  UNL1       -0.4770
     28 C           0.4128    5.8761    1.5748 C.3     1  UNL1        0.1108
     29 O           3.5622    6.3451   -1.2705 O.3     1  UNL1       -0.3862
     30 C           1.6624    7.3473   -0.0902 C.3     1  UNL1        0.1121
     31 C           0.8456    7.3285    1.2308 C.3     1  UNL1        0.1117
     32 C          -0.2211    5.7155    2.9732 C.3     1  UNL1        0.0729
     33 O           2.1621    8.6612   -0.3172 O.3     1  UNL1       -0.3865
     34 O           1.6293    7.8843    2.2953 O.3     1  UNL1       -0.3865
     35 O          -1.3993    6.5126    3.0761 O.3     1  UNL1       -0.3924
     36 H           0.5204    1.6438    0.1848 H       1  UNL1        0.2922
     37 H           5.9333   -2.7036   -0.0394 H       1  UNL1        0.0661
     38 H           0.0870   -1.8591   -0.4993 H       1  UNL1        0.0278
     39 H           0.0523   -2.9955    0.8622 H       1  UNL1        0.0278
     40 H           0.2444   -3.5054   -0.8309 H       1  UNL1        0.0278
     41 H           1.3914    4.8340   -0.5347 H       1  UNL1        0.0676
     42 H           6.7421    1.4146    0.0119 H       1  UNL1        0.2923
     43 H           4.8441    5.3054   -0.6119 H       1  UNL1        0.2923
     44 H           3.5045    6.5673    0.7828 H       1  UNL1        0.0649
     45 H           5.8742   -4.7682    0.0667 H       1  UNL1        0.2922
     46 H           3.7840   -6.0959    0.0205 H       1  UNL1        0.2954
     47 H          -0.3077    5.5264    0.8287 H       1  UNL1        0.0646
     48 H           2.9844    6.6527   -1.9756 H       1  UNL1        0.2100
     49 H           0.9948    7.0856   -0.9164 H       1  UNL1        0.0647
     50 H          -0.0487    7.9443    1.0988 H       1  UNL1        0.0647
     51 H           0.4897    6.0090    3.7506 H       1  UNL1        0.0584
     52 H          -0.4860    4.6657    3.1261 H       1  UNL1        0.0584
     53 H           2.3863    9.0113    0.5629 H       1  UNL1        0.2100
     54 H           2.2377    7.1930    2.6128 H       1  UNL1        0.2100
     55 H          -1.1172    7.4390    3.1757 H       1  UNL1        0.2095
@<TRIPOS>BOND
     1     1     2    2
     2     2     3    1
     3     2     4    1
     4     3     5   ar
     5     3     6   ar
     6     4     7   ar
     7     4     8   ar
     8     5     9    1
     9     5    10   ar
    10     6    11    1
    11     6    12   ar
    12     7    13   ar
    13     8    14   ar
    14     8    15    1
    15    10    16   ar
    16    10    17    1
    17    11    18    2
    18    12    19    1
    19    13    20   ar
    20    14    21    1
    21    16    22    1
    22    17    23    1
    23    17    24    1
    24    20    25    1
    25    21    26    2
    26    21    27    1
    27    23    28    1
    28    24    29    1
    29    24    30    1
    30    28    31    1
    31    28    32    1
    32    30    33    1
    33    31    34    1
    34    32    35    1
    35     7    11    1
    36    12    16   ar
    37    14    20   ar
    38    30    31    1
    39     9    36    1
    40    13    37    1
    41    15    38    1
    42    15    39    1
    43    15    40    1
    44    17    41    1
    45    19    42    1
    46    22    43    1
    47    24    44    1
    48    25    45    1
    49    27    46    1
    50    28    47    1
    51    29    48    1
    52    30    49    1
    53    31    50    1
    54    32    51    1
    55    32    52    1
    56    33    53    1
    57    34    54    1
    58    35    55    1
@<TRIPOS>MOLECULE
6
 17 18 0 0 0
SMALL
GASTEIGER

@<TRIPOS>ATOM
      1 O          -3.2257    0.6203   -0.0572 O.2     1  UNL1       -0.2452
      2 C          -2.0988    0.1706   -0.0543 C.ar    1  UNL1        0.3372
      3 O          -1.0144    0.9860   -0.0419 O.2     1  UNL1       -0.4222
      4 C          -1.7943   -1.2696   -0.0578 C.ar    1  UNL1        0.0236
      5 C           0.2959    0.5527   -0.0537 C.ar    1  UNL1        0.1390
      6 C          -0.4486   -1.7690   -0.0303 C.ar    1  UNL1       -0.0443
      7 C           0.5947   -0.8536   -0.0121 C.ar    1  UNL1        0.0176
      8 C           1.3583    1.5185   -0.0296 C.ar    1  UNL1       -0.0186
      9 C           1.9284   -1.2576    0.0445 C.ar    1  UNL1       -0.0511
     10 C           2.6734    1.0617    0.0261 C.ar    1  UNL1       -0.0582
     11 C           2.9527   -0.3073    0.0631 C.ar    1  UNL1       -0.0610
     12 H          -2.6577   -1.9267   -0.0671 H       1  UNL1        0.0689
     13 H          -0.2522   -2.8379   -0.0116 H       1  UNL1        0.0627
     14 H           1.1507    2.5856   -0.0586 H       1  UNL1        0.0654
     15 H           2.1783   -2.3154    0.0779 H       1  UNL1        0.0625
     16 H           3.4910    1.7789    0.0412 H       1  UNL1        0.0619
     17 H           3.9871   -0.6396    0.1079 H       1  UNL1        0.0618
@<TRIPOS>BOND
     1     1     2    2
     2     2     3   ar
     3     2     4   ar
     4     3     5   ar
     5     4     6   ar
     6     5     7   ar
     7     5     8   ar
     8     7     9   ar
     9     8    10   ar
    10     9    11   ar
    11     6     7   ar
    12    10    11   ar
    13     4    12    1
    14     6    13    1
    15     8    14    1
    16     9    15    1
    17    10    16    1
    18    11    17    1
@<TRIPOS>MOLECULE
7
 20 21 0 0 0
SMALL
GASTEIGER

@<TRIPOS>ATOM
      1 O           2.4284    0.2496   -1.2199 O.2     1  UNL1       -0.2434
      2 C           2.1377   -0.0166   -0.0713 C.2     1  UNL1        0.3553
      3 OXT         1.0803   -0.7272    0.2216 O.3     1  UNL1       -0.4761
      4 CA          2.9386    0.4305    1.1193 C.ar    1  UNL1        0.1481
      5 N           2.5146    0.0598    2.3548 N.ar    1  UNL1       -0.2401
      6 C           4.0871    1.2055    0.9378 C.ar    1  UNL1       -0.0287
      7 C           3.2232    0.4496    3.4399 C.ar    1  UNL1        0.0719
      8 C           4.8176    1.6119    2.0504 C.ar    1  UNL1       -0.0503
      9 C           4.3839    1.2304    3.3191 C.ar    1  UNL1        0.0004
     10 C           2.7982    0.0692    4.7145 C.ar    1  UNL1       -0.0357
     11 C           5.0966    1.6199    4.4543 C.ar    1  UNL1       -0.0526
     12 C           3.5107    0.4564    5.8476 C.ar    1  UNL1       -0.0597
     13 C           4.6596    1.2323    5.7184 C.ar    1  UNL1       -0.0611
     14 HXT         1.0726   -0.7898    1.1959 H       1  UNL1        0.2955
     15 H           4.4115    1.4928   -0.0596 H       1  UNL1        0.0641
     16 H           5.7127    2.2167    1.9248 H       1  UNL1        0.0625
     17 H           1.9021   -0.5369    4.8288 H       1  UNL1        0.0639
     18 H           5.9949    2.2257    4.3589 H       1  UNL1        0.0624
     19 H           3.1686    0.1517    6.8337 H       1  UNL1        0.0618
     20 H           5.2148    1.5343    6.6032 H       1  UNL1        0.0618
@<TRIPOS>BOND
     1     1     2    2
     2     2     3    1
     3     2     4    1
     4     4     5   ar
     5     4     6   ar
     6     5     7   ar
     7     6     8   ar
     8     7     9   ar
     9     7    10   ar
    10     9    11   ar
    11    10    12   ar
    12    11    13   ar
    13     8     9   ar
    14    12    13   ar
    15     3    14    1
    16     6    15    1
    17     8    16    1
    18    10    17    1
    19    11    18    1
    20    12    19    1
    21    13    20    1
@<TRIPOS>MOLECULE
8
 19 19 0 0 0
SMALL
GASTEIGER

@<TRIPOS>ATOM
      1 O           1.0115   -0.0110    0.0943 O.2     1  UNL1       -0.2458
      2 C           2.2245   -0.0083    0.0939 C.2     1  UNL1        0.3296
      3 O           2.9196   -1.1052    0.2421 O.3     1  UNL1       -0.4775
      4 C           3.0136    1.2365   -0.0619 C.2     1  UNL1        0.0229
      5 C           4.3491    1.3823   -0.0639 C.2     1  UNL1       -0.0478
      6 C           5.1143    2.6364   -0.2086 C.ar    1  UNL1       -0.0248
      7 C           4.7725    3.7639    0.5414 C.ar    1  UNL1       -0.0546
      8 C           6.1992    2.6964   -1.0858 C.ar    1  UNL1       -0.0546
      9 C           5.5061    4.9417    0.4121 C.ar    1  UNL1       -0.0612
     10 C           6.9360    3.8731   -1.2109 C.ar    1  UNL1       -0.0612
     11 C           6.5891    4.9965   -0.4623 C.ar    1  UNL1       -0.0617
     12 H           3.8594   -0.8618    0.2139 H       1  UNL1        0.2954
     13 H           2.4247    2.1454   -0.1836 H       1  UNL1        0.0689
     14 H           4.9709    0.4969    0.0578 H       1  UNL1        0.0626
     15 H           3.9326    3.7287    1.2313 H       1  UNL1        0.0623
     16 H           6.4776    1.8234   -1.6717 H       1  UNL1        0.0623
     17 H           5.2351    5.8175    0.9973 H       1  UNL1        0.0618
     18 H           7.7833    3.9146   -1.8910 H       1  UNL1        0.0618
     19 H           7.1643    5.9138   -0.5595 H       1  UNL1        0.0618
@<TRIPOS>BOND
     1     1     2    2
     2     2     3    1
     3     2     4    1
     4     4     5    2
     5     5     6    1
     6     6     7   ar
     7     6     8   ar
     8     7     9   ar
     9     8    10   ar
    10     9    11   ar
    11    10    11   ar
    12     3    12    1
    13     4    13    1
    14     5    14    1
    15     7    15    1
    16     8    16    1
    17     9    17    1
    18    10    18    1
    19    11    19    1
@<TRIPOS>MOLECULE
9
 43 44 0 0 0
SMALL
GASTEIGER

@<TRIPOS>ATOM
      1 O           2.8648    0.7152   -2.5717 O.2     1  UNL1       -0.2456
      2 C           2.2761    0.0615   -1.7341 C.2     1  UNL1        0.3323
      3 O           2.8729   -0.6997   -0.7864 O.3     1  UNL1       -0.4555
      4 C           0.7979    0.0414   -1.6303 C.2     1  UNL1        0.0231
      5 C           4.3177   -0.8628   -0.7922 C.3     1  UNL1        0.1346
      6 C           0.0395   -0.6781   -0.7867 C.2     1  UNL1       -0.0477
      7 C           4.7384   -1.8492   -1.9141 C.3     1  UNL1        0.1180
      8 C           4.7799   -1.3415    0.6083 C.3     1  UNL1        0.0264
      9 C          -1.4358   -0.7113   -0.6861 C.ar    1  UNL1       -0.0211
     10 O           6.1497   -1.7469   -2.1520 O.3     1  UNL1       -0.3856
     11 C           4.3485   -3.3106   -1.5754 C.3     1  UNL1        0.0877
     12 C           4.3942   -2.8147    0.9303 C.3     1  UNL1        0.1677
     13 C          -2.2333   -0.7155   -1.8347 C.ar    1  UNL1       -0.0094
     14 C          -2.0407   -0.7703    0.5721 C.ar    1  UNL1       -0.0509
     15 O           4.8681   -4.1781   -2.5843 O.3     1  UNL1       -0.3890
     16 C           4.8905   -3.7521   -0.1958 C.3     1  UNL1        0.0153
     17 O           2.9647   -2.9236    1.0370 O.3     1  UNL1       -0.3772
     18 C           5.0131   -3.2434    2.2599 C.2     1  UNL1        0.3370
     19 C          -3.6231   -0.7787   -1.7222 C.ar    1  UNL1        0.1588
     20 C          -3.4285   -0.8395    0.6844 C.ar    1  UNL1       -0.0160
     21 O           6.1466   -2.9653    2.5941 O.2     1  UNL1       -0.2478
     22 O           4.2626   -4.0519    2.9641 O.3     1  UNL1       -0.4786
     23 O          -4.4222   -0.7827   -2.8309 O.3     1  UNL1       -0.5033
     24 C          -4.2164   -0.8463   -0.4638 C.ar    1  UNL1        0.1582
     25 O          -5.5713   -0.9275   -0.3854 O.3     1  UNL1       -0.5033
     26 H           0.2738    0.6841   -2.3366 H       1  UNL1        0.0689
     27 H           4.7667    0.1172   -0.9827 H       1  UNL1        0.0762
     28 H           0.5452   -1.3358   -0.0805 H       1  UNL1        0.0626
     29 H           4.2286   -1.5683   -2.8399 H       1  UNL1        0.0656
     30 H           4.3673   -0.6775    1.3721 H       1  UNL1        0.0335
     31 H           5.8662   -1.2332    0.6589 H       1  UNL1        0.0335
     32 H           6.6371   -1.9411   -1.3329 H       1  UNL1        0.2100
     33 H           3.2576   -3.3940   -1.5693 H       1  UNL1        0.0621
     34 H          -1.7722   -0.6750   -2.8182 H       1  UNL1        0.0661
     35 H          -1.4300   -0.7729    1.4717 H       1  UNL1        0.0625
     36 H           5.7571   -3.8490   -2.8142 H       1  UNL1        0.2099
     37 H           5.9837   -3.7597   -0.2114 H       1  UNL1        0.0324
     38 H           4.5679   -4.7760    0.0113 H       1  UNL1        0.0324
     39 H           2.6522   -2.0997    1.4514 H       1  UNL1        0.2109
     40 H          -3.8944   -0.8946    1.6657 H       1  UNL1        0.0655
     41 H           3.4178   -4.1323    2.4750 H       1  UNL1        0.2951
     42 H          -3.8823   -0.7119   -3.6343 H       1  UNL1        0.2923
     43 H          -5.8913   -0.9465   -1.3132 H       1  UNL1        0.2923
@<TRIPOS>BOND
     1     1     2    2
     2     2     3    1
     3     2     4    1
     4     3     5    1
     5     4     6    2
     6     5     7    1
     7     5     8    1
     8     6     9    1
     9     7    10    1
    10     7    11    1
    11     8    12    1
    12     9    13   ar
    13     9    14   ar
    14    11    15    1
    15    11    16    1
    16    12    17    1
    17    12    18    1
    18    13    19   ar
    19    14    20   ar
    20    18    21    2
    21    18    22    1
    22    19    23    1
    23    19    24   ar
    24    24    25    1
    25    12    16    1
    26    20    24   ar
    27     4    26    1
    28     5    27    1
    29     6    28    1
    30     7    29    1
    31     8    30    1
    32     8    31    1
    33    10    32    1
    34    11    33    1
    35    13    34    1
    36    14    35    1
    37    15    36    1
    38    16    37    1
    39    16    38    1
    40    17    39    1
    41    20    40    1
    42    22    41    1
    43    23    42    1
    44    25    43    1
@<TRIPOS>MOLECULE
12
 24 25 0 0 0
SMALL
GASTEIGER

@<TRIPOS>ATOM
      1 O           3.0414    0.4387    0.0070 O.2     1  UNL1       -0.2462
      2 C           1.8428    0.2272    0.0082 C.ar    1  UNL1        0.3331
      3 N           1.3303   -1.0425    0.0142 N.ar    1  UNL1       -0.2622
      4 N           0.9478    1.2572    0.0046 N.ar    1  UNL1       -0.2796
      5 C           0.0033   -1.3634    0.0159 C.ar    1  UNL1        0.2822
      6 C           2.2717   -2.1900    0.0222 C.3     1  UNL1        0.0196
      7 C          -0.4268    1.0807    0.0013 C.ar    1  UNL1        0.1678
      8 C           1.3963    2.6616    0.0067 C.3     1  UNL1        0.0181
      9 O          -0.3834   -2.5186    0.0236 O.2     1  UNL1       -0.2652
     10 C          -0.9069   -0.2030    0.0083 C.ar    1  UNL1        0.1512
     11 N          -1.4960    1.3905   -0.0020 N.ar    1  UNL1       -0.2177
     12 N          -2.2480    0.0381    0.0094 N.ar    1  UNL1       -0.3277
     13 C          -2.6080    1.3601   -0.0010 C.ar    1  UNL1        0.0986
     14 C          -3.2568   -1.0279    0.0288 C.3     1  UNL1        0.0135
     15 H           3.3159   -1.8752    0.0262 H       1  UNL1        0.0458
     16 H           2.0970   -2.8016   -0.8673 H       1  UNL1        0.0458
     17 H           2.0889   -2.7958    0.9134 H       1  UNL1        0.0458
     18 H           2.4856    2.7428    0.0344 H       1  UNL1        0.0458
     19 H           0.9847    3.1684    0.8837 H       1  UNL1        0.0458
     20 H           1.0292    3.1567   -0.8966 H       1  UNL1        0.0458
     21 H          -3.6369    1.6869   -0.0012 H       1  UNL1        0.1029
     22 H          -2.7856   -2.0114   -0.0209 H       1  UNL1        0.0456
     23 H          -3.9248   -0.9148   -0.8289 H       1  UNL1        0.0456
     24 H          -3.8381   -0.9616    0.9522 H       1  UNL1        0.0456
@<TRIPOS>BOND
     1     1     2    2
     2     2     3   ar
     3     2     4   ar
     4     3     5   ar
     5     3     6    1
     6     4     7   ar
     7     4     8    1
     8     5     9    2
     9     5    10   ar
    10     7    11   ar
    11    10    12   ar
    12    11    13   ar
    13    12    14    1
    14     7    10   ar
    15    12    13   ar
    16     6    15    1
    17     6    16    1
    18     6    17    1
    19     8    18    1
    20     8    19    1
    21     8    20    1
    22    13    21    1
    23    14    22    1
    24    14    23    1
    25    14    24    1
@<TRIPOS>MOLECULE
13
 21 21 0 0 0
SMALL
GASTEIGER

@<TRIPOS>ATOM
      1 O           1.0792    0.1828    0.1034 O.2     1  UNL1       -0.2458
      2 C           2.2910    0.2032    0.1654 C.2     1  UNL1        0.3296
      3 O           2.9303   -0.3046    1.1889 O.3     1  UNL1       -0.4775
      4 C           3.1148    0.8349   -0.8955 C.2     1  UNL1        0.0229
      5 C           4.4519    0.9380   -0.9828 C.2     1  UNL1       -0.0477
      6 C           5.2379    1.5984   -2.0501 C.ar    1  UNL1       -0.0211
      7 C           4.9051    2.8861   -2.4824 C.ar    1  UNL1       -0.0094
      8 C           6.3405    0.9501   -2.6136 C.ar    1  UNL1       -0.0509
      9 C           5.6768    3.5219   -3.4566 C.ar    1  UNL1        0.1588
     10 C           7.1153    1.5882   -3.5834 C.ar    1  UNL1       -0.0160
     11 O           5.3670    4.7781   -3.8939 O.3     1  UNL1       -0.5033
     12 C           6.7869    2.8780   -3.9959 C.ar    1  UNL1        0.1582
     13 O           7.5386    3.5376   -4.9200 O.3     1  UNL1       -0.5033
     14 H           3.8827   -0.1599    1.0765 H       1  UNL1        0.2954
     15 H           2.5438    1.2792   -1.7105 H       1  UNL1        0.0689
     16 H           5.0573    0.5026   -0.1892 H       1  UNL1        0.0626
     17 H           4.0486    3.3992   -2.0516 H       1  UNL1        0.0661
     18 H           6.6084   -0.0531   -2.2901 H       1  UNL1        0.0625
     19 H           7.9787    1.0833   -4.0103 H       1  UNL1        0.0655
     20 H           4.5013    5.0450   -3.5486 H       1  UNL1        0.2923
     21 H           7.1463    4.4356   -5.0056 H       1  UNL1        0.2923
@<TRIPOS>BOND
     1     1     2    2
     2     2     3    1
     3     2     4    1
     4     4     5    2
     5     5     6    1
     6     6     7   ar
     7     6     8   ar
     8     7     9   ar
     9     8    10   ar
    10     9    11    1
    11     9    12   ar
    12    12    13    1
    13    10    12   ar
    14     3    14    1
    15     4    15    1
    16     5    16    1
    17     7    17    1
    18     8    18    1
    19    10    19    1
    20    11    20    1
    21    13    21    1
@<TRIPOS>MOLECULE
15
 28 31 0 0 0
SMALL
GASTEIGER

@<TRIPOS>ATOM
      1 O           0.9812    0.1611    0.0586 O.2     1  UNL1       -0.2445
      2 C           2.1909    0.0714    0.0608 C.ar    1  UNL1        0.3454
      3 O           2.9723    1.1835    0.0627 O.2     1  UNL1       -0.4178
      4 C           2.9240   -1.2094    0.0609 C.ar    1  UNL1        0.0744
      5 C           4.3555    1.1791    0.0776 C.ar    1  UNL1        0.1854
      6 C           4.3625   -1.2431    0.0589 C.ar    1  UNL1        0.0468
      7 C           2.2604   -2.4978    0.0620 C.ar    1  UNL1       -0.0017
      8 C           5.0783    2.4190    0.0633 C.ar    1  UNL1        0.2022
      9 C           5.0720   -0.0600    0.0649 C.ar    1  UNL1        0.0468
     10 C           5.0792   -2.4807    0.0452 C.ar    1  UNL1        0.1854
     11 C           2.9644   -3.7068    0.0635 C.ar    1  UNL1        0.1628
     12 O           4.4196    3.6140    0.0601 O.3     1  UNL1       -0.5009
     13 C           6.4730    2.3903    0.0584 C.ar    1  UNL1        0.1628
     14 C           6.5109   -0.0992    0.0641 C.ar    1  UNL1        0.0744
     15 O           6.4617   -2.4877    0.0679 O.2     1  UNL1       -0.4178
     16 C           4.3576   -3.7187    0.0596 C.ar    1  UNL1        0.2022
     17 O           2.2934   -4.8933    0.0684 O.3     1  UNL1       -0.5032
     18 O           7.1487    3.5697    0.0514 O.3     1  UNL1       -0.5032
     19 C           7.1774    1.1846    0.0609 C.ar    1  UNL1       -0.0017
     20 C           7.2442   -1.3785    0.0693 C.ar    1  UNL1        0.3454
     21 O           5.0573   -4.8837    0.0622 O.3     1  UNL1       -0.5009
     22 O           8.4538   -1.4701    0.0751 O.2     1  UNL1       -0.2445
     23 H           1.1728   -2.4997    0.0642 H       1  UNL1        0.0664
     24 H           3.4597    3.4322    0.0650 H       1  UNL1        0.2924
     25 H           1.3416   -4.7414    0.0641 H       1  UNL1        0.2923
     26 H           6.4676    4.2733    0.0510 H       1  UNL1        0.2923
     27 H           8.2651    1.1966    0.0579 H       1  UNL1        0.0664
     28 H           5.9967   -4.6444    0.0612 H       1  UNL1        0.2924
@<TRIPOS>BOND
     1     1     2    2
     2     2     3   ar
     3     2     4   ar
     4     3     5   ar
     5     4     6   ar
     6     4     7   ar
     7     5     8   ar
     8     5     9   ar
     9     6    10   ar
    10     7    11   ar
    11     8    12    1
    12     8    13   ar
    13     9    14   ar
    14    10    15   ar
    15    10    16   ar
    16    11    17    1
    17    13    18    1
    18    13    19   ar
    19    14    20   ar
    20    16    21    1
    21    20    22    2
    22     6     9   ar
    23    11    16   ar
    24    14    19   ar
    25    15    20   ar
    26     7    23    1
    27    12    24    1
    28    17    25    1
    29    18    26    1
    30    19    27    1
    31    21    28    1
@<TRIPOS>MOLECULE
16
 40 42 0 0 0
SMALL
GASTEIGER

@<TRIPOS>ATOM
      1 O           2.6848   -4.1224   -2.8778 O.2     1  UNL1       -0.2452
      2 C           1.5848   -3.7927   -2.4868 C.ar    1  UNL1        0.3372
      3 O           1.4308   -3.0319   -1.3751 O.2     1  UNL1       -0.4220
      4 C           0.3294   -4.1654   -3.1592 C.ar    1  UNL1        0.0236
      5 C           0.2146   -2.6658   -0.8356 C.ar    1  UNL1        0.1427
      6 C          -0.9540   -3.7224   -2.6896 C.ar    1  UNL1       -0.0442
      7 C          -1.0078   -2.9578   -1.5314 C.ar    1  UNL1        0.0213
      8 C           0.1897   -1.8976    0.3740 C.ar    1  UNL1        0.0265
      9 C          -2.2107   -2.4645   -1.0235 C.ar    1  UNL1       -0.0055
     10 C          -1.0350   -1.4291    0.8456 C.ar    1  UNL1        0.1621
     11 C          -2.2234   -1.6956    0.1500 C.ar    1  UNL1        0.1660
     12 O          -1.0637   -0.6990    1.9987 O.3     1  UNL1       -0.5032
     13 O          -3.3965   -1.1586    0.6613 O.3     1  UNL1       -0.4571
     14 C          -4.6241   -0.9627   -0.0885 C.3     1  UNL1        0.2310
     15 O          -4.3773   -0.2627   -1.3387 O.3     1  UNL1       -0.3313
     16 C          -5.5971   -0.1067    0.7590 C.3     1  UNL1        0.1454
     17 C          -3.7428    1.0399   -1.2082 C.3     1  UNL1        0.1140
     18 O          -5.8824   -0.7594    2.0037 O.3     1  UNL1       -0.3829
     19 C          -4.9858    1.2965    1.0053 C.3     1  UNL1        0.1152
     20 C          -4.6190    1.9801   -0.3340 C.3     1  UNL1        0.1120
     21 C          -3.4442    1.5929   -2.6220 C.3     1  UNL1        0.0731
     22 O          -5.9271    2.1365    1.6753 O.3     1  UNL1       -0.3864
     23 O          -5.8259    2.3677   -1.0079 O.3     1  UNL1       -0.3865
     24 O          -4.5864    1.4949   -3.4823 O.3     1  UNL1       -0.3924
     25 H           0.4444   -4.7808   -4.0461 H       1  UNL1        0.0689
     26 H          -1.8611   -3.9684   -3.2371 H       1  UNL1        0.0627
     27 H           1.1119   -1.6774    0.9061 H       1  UNL1        0.0692
     28 H          -3.1374   -2.6798   -1.5474 H       1  UNL1        0.0662
     29 H          -0.2235   -0.8209    2.4735 H       1  UNL1        0.2923
     30 H          -5.0618   -1.9469   -0.3164 H       1  UNL1        0.1084
     31 H          -6.5334    0.0013    0.2046 H       1  UNL1        0.0683
     32 H          -2.7853    0.9046   -0.6967 H       1  UNL1        0.0647
     33 H          -5.1188   -0.6513    2.6020 H       1  UNL1        0.2102
     34 H          -4.0865    1.1948    1.6202 H       1  UNL1        0.0648
     35 H          -4.0453    2.8845   -0.1129 H       1  UNL1        0.0647
     36 H          -2.6272    1.0133   -3.0602 H       1  UNL1        0.0584
     37 H          -3.1265    2.6369   -2.5515 H       1  UNL1        0.0584
     38 H          -6.4233    2.5809    0.9573 H       1  UNL1        0.2100
     39 H          -5.9739    1.7499   -1.7468 H       1  UNL1        0.2100
     40 H          -4.9152    0.5774   -3.4628 H       1  UNL1        0.2095
@<TRIPOS>BOND
     1     1     2    2
     2     2     3   ar
     3     2     4   ar
     4     3     5   ar
     5     4     6   ar
     6     5     7   ar
     7     5     8   ar
     8     7     9   ar
     9     8    10   ar
    10     9    11   ar
    11    10    12    1
    12    11    13    1
    13    13    14    1
    14    14    15    1
    15    14    16    1
    16    15    17    1
    17    16    18    1
    18    16    19    1
    19    17    20    1
    20    17    21    1
    21    19    22    1
    22    20    23    1
    23    21    24    1
    24     6     7   ar
    25    10    11   ar
    26    19    20    1
    27     4    25    1
    28     6    26    1
    29     8    27    1
    30     9    28    1
    31    12    29    1
    32    14    30    1
    33    16    31    1
    34    17    32    1
    35    18    33    1
    36    19    34    1
    37    20    35    1
    38    21    36    1
    39    21    37    1
    40    22    38    1
    41    23    39    1
    42    24    40    1
@<TRIPOS>MOLECULE
17
 24 24 0 0 0
SMALL
GASTEIGER

@<TRIPOS>ATOM
      1 O           1.0254    0.2056    0.3432 O.2     1  UNL1       -0.2458
      2 C           2.2370    0.1498    0.3379 C.2     1  UNL1        0.3296
      3 O           2.8763   -0.8035    0.9689 O.3     1  UNL1       -0.4775
      4 C           3.0573    1.1804   -0.3482 C.2     1  UNL1        0.0229
      5 C           4.3927    1.2567   -0.4880 C.2     1  UNL1       -0.0477
      6 C           5.1695    2.3204   -1.1679 C.ar    1  UNL1       -0.0211
      7 C           4.8599    3.6691   -0.9620 C.ar    1  UNL1       -0.0092
      8 C           6.2384    1.9850   -2.0031 C.ar    1  UNL1       -0.0509
      9 C           5.6156    4.6747   -1.5787 C.ar    1  UNL1        0.1618
     10 C           6.9962    2.9833   -2.6147 C.ar    1  UNL1       -0.0160
     11 O           5.3542    6.0262   -1.4053 O.3     1  UNL1       -0.4914
     12 C           6.6882    4.3261   -2.3983 C.ar    1  UNL1        0.1585
     13 C           4.2301    6.5283   -0.6461 C.3     1  UNL1        0.0790
     14 O           7.4353    5.3094   -2.9796 O.3     1  UNL1       -0.5033
     15 H           3.8310   -0.6450    0.9227 H       1  UNL1        0.2954
     16 H           2.4816    1.9884   -0.8001 H       1  UNL1        0.0689
     17 H           5.0020    0.4608   -0.0629 H       1  UNL1        0.0626
     18 H           4.0284    3.9265   -0.3117 H       1  UNL1        0.0661
     19 H           6.4920    0.9416   -2.1732 H       1  UNL1        0.0625
     20 H           7.8333    2.7147   -3.2552 H       1  UNL1        0.0655
     21 H           4.2470    7.6212   -0.6734 H       1  UNL1        0.0660
     22 H           4.3087    6.1903    0.3908 H       1  UNL1        0.0660
     23 H           3.2980    6.1682   -1.0910 H       1  UNL1        0.0660
     24 H           7.0804    6.1738   -2.6758 H       1  UNL1        0.2923
@<TRIPOS>BOND
     1     1     2    2
     2     2     3    1
     3     2     4    1
     4     4     5    2
     5     5     6    1
     6     6     7   ar
     7     6     8   ar
     8     7     9   ar
     9     8    10   ar
    10     9    11    1
    11     9    12   ar
    12    11    13    1
    13    12    14    1
    14    10    12   ar
    15     3    15    1
    16     4    16    1
    17     5    17    1
    18     7    18    1
    19     8    19    1
    20    10    20    1
    21    13    21    1
    22    13    22    1
    23    13    23    1
    24    14    24    1
@<TRIPOS>MOLECULE
18
 69 72 0 0 0
SMALL
GASTEIGER

@<TRIPOS>ATOM
      1 O           2.9357    1.4694   -2.1606 O.2     1  UNL1       -0.2449
      2 C           2.3301    0.5191   -1.7023 C.2     1  UNL1        0.3417
      3 O           2.9537   -0.5225   -1.1001 O.3     1  UNL1       -0.4287
      4 C           0.8353    0.4137   -1.8133 C.ar    1  UNL1        0.0662
      5 C           4.4095   -0.5779   -1.1150 C.3     1  UNL1        0.2352
      6 C           0.1233    1.4268   -2.4656 C.ar    1  UNL1       -0.0023
      7 C           0.1391   -0.6935   -1.3100 C.ar    1  UNL1       -0.0023
      8 O           4.8927   -1.1383   -2.3707 O.3     1  UNL1       -0.3300
      9 C           4.9163   -1.4625    0.0471 C.3     1  UNL1        0.1565
     10 C          -1.2532    1.3163   -2.6477 C.ar    1  UNL1        0.1628
     11 C          -1.2425   -0.7987   -1.4874 C.ar    1  UNL1        0.1628
     12 C           4.5196   -2.5205   -2.6564 C.3     1  UNL1        0.1260
     13 O           4.4730   -0.9430    1.3074 O.3     1  UNL1       -0.3818
     14 C           4.4470   -2.9189   -0.2025 C.3     1  UNL1        0.1631
     15 O          -1.9525    2.2797   -3.3154 O.3     1  UNL1       -0.5032
     16 C          -1.9311    0.2012   -2.1693 C.ar    1  UNL1        0.2006
     17 O          -1.9259   -1.8850   -1.0274 O.3     1  UNL1       -0.5032
     18 C           5.0246   -3.4385   -1.5276 C.3     1  UNL1        0.1241
     19 C           5.1392   -2.9357   -4.0009 C.3     1  UNL1        0.1216
     20 O           4.8735   -3.8096    0.8553 O.3     1  UNL1       -0.4523
     21 O          -3.2646    0.1019   -2.4131 O.3     1  UNL1       -0.5009
     22 O           6.4589   -3.4459   -1.4978 O.3     1  UNL1       -0.3853
     23 O           4.4643   -2.2185   -5.0534 O.3     1  UNL1       -0.4584
     24 C           4.0495   -4.0126    1.9003 C.2     1  UNL1        0.3398
     25 C           3.3149   -2.7066   -5.5640 C.2     1  UNL1        0.3395
     26 O           2.9227   -3.5525    1.9568 O.2     1  UNL1       -0.2449
     27 C           4.6499   -4.7714    3.0342 C.ar    1  UNL1        0.0661
     28 O           2.8419   -3.7803   -5.2413 O.2     1  UNL1       -0.2450
     29 C           2.7377   -1.8691   -6.6557 C.ar    1  UNL1        0.0661
     30 C           5.9317   -5.3323    2.9589 C.ar    1  UNL1       -0.0023
     31 C           3.9175   -4.8738    4.2131 C.ar    1  UNL1       -0.0023
     32 C           3.2323   -0.5843   -6.9043 C.ar    1  UNL1       -0.0023
     33 C           1.7112   -2.3819   -7.4496 C.ar    1  UNL1       -0.0023
     34 C           6.4783   -5.9651    4.0759 C.ar    1  UNL1        0.1628
     35 C           4.4689   -5.4760    5.3330 C.ar    1  UNL1        0.1628
     36 C           2.7007    0.1812   -7.9361 C.ar    1  UNL1        0.1628
     37 C           1.2075   -1.6350   -8.5090 C.ar    1  UNL1        0.1628
     38 O           7.7325   -6.5232    4.0352 O.3     1  UNL1       -0.5032
     39 C           5.7524   -6.0145    5.2652 C.ar    1  UNL1        0.2006
     40 O           3.7455   -5.4752    6.4819 O.3     1  UNL1       -0.5032
     41 O           3.1558    1.4521   -8.1629 O.3     1  UNL1       -0.5032
     42 C           1.6988   -0.3520   -8.7452 C.ar    1  UNL1        0.2006
     43 O           0.2538   -2.1771   -9.3147 O.3     1  UNL1       -0.5032
     44 O           6.3317   -6.5735    6.3573 O.3     1  UNL1       -0.5009
     45 O           1.2238    0.4075   -9.7620 O.3     1  UNL1       -0.5009
     46 H           4.8082    0.4441   -1.0112 H       1  UNL1        0.1086
     47 H           0.6448    2.2980   -2.8549 H       1  UNL1        0.0663
     48 H           0.6722   -1.4855   -0.7903 H       1  UNL1        0.0663
     49 H           6.0089   -1.4323    0.0482 H       1  UNL1        0.0694
     50 H           3.4290   -2.5885   -2.7160 H       1  UNL1        0.0659
     51 H           3.6621   -1.4017    1.5835 H       1  UNL1        0.2102
     52 H           3.3568   -2.9447   -0.2923 H       1  UNL1        0.0790
     53 H          -1.3559    2.9990   -3.5686 H       1  UNL1        0.2923
     54 H          -1.3164   -2.5299   -0.6558 H       1  UNL1        0.2923
     55 H           4.6651   -4.4578   -1.6960 H       1  UNL1        0.0658
     56 H           5.0484   -4.0151   -4.1596 H       1  UNL1        0.0725
     57 H           6.1979   -2.6659   -4.0214 H       1  UNL1        0.0725
     58 H          -3.4745    0.8622   -2.9854 H       1  UNL1        0.2924
     59 H           6.7609   -2.5366   -1.6815 H       1  UNL1        0.2101
     60 H           6.5085   -5.2712    2.0402 H       1  UNL1        0.0663
     61 H           2.9195   -4.4444    4.2777 H       1  UNL1        0.0663
     62 H           4.0204   -0.1652   -6.2833 H       1  UNL1        0.0663
     63 H           1.3280   -3.3832   -7.2677 H       1  UNL1        0.0663
     64 H           8.0752   -6.5771    3.1217 H       1  UNL1        0.2923
     65 H           2.9695   -4.9130    6.3288 H       1  UNL1        0.2923
     66 H           3.8057    1.7058   -7.4816 H       1  UNL1        0.2923
     67 H           0.1571   -3.1131   -9.0897 H       1  UNL1        0.2923
     68 H           7.2325   -6.7799    6.0619 H       1  UNL1        0.2924
     69 H           1.7283    1.2343   -9.6890 H       1  UNL1        0.2924
@<TRIPOS>BOND
     1     1     2    2
     2     2     3    1
     3     2     4    1
     4     3     5    1
     5     4     6   ar
     6     4     7   ar
     7     5     8    1
     8     5     9    1
     9     6    10   ar
    10     7    11   ar
    11     8    12    1
    12     9    13    1
    13     9    14    1
    14    10    15    1
    15    10    16   ar
    16    11    17    1
    17    12    18    1
    18    12    19    1
    19    14    20    1
    20    16    21    1
    21    18    22    1
    22    19    23    1
    23    20    24    1
    24    23    25    1
    25    24    26    2
    26    24    27    1
    27    25    28    2
    28    25    29    1
    29    27    30   ar
    30    27    31   ar
    31    29    32   ar
    32    29    33   ar
    33    30    34   ar
    34    31    35   ar
    35    32    36   ar
    36    33    37   ar
    37    34    38    1
    38    34    39   ar
    39    35    40    1
    40    36    41    1
    41    36    42   ar
    42    37    43    1
    43    39    44    1
    44    42    45    1
    45    11    16   ar
    46    14    18    1
    47    35    39   ar
    48    37    42   ar
    49     5    46    1
    50     6    47    1
    51     7    48    1
    52     9    49    1
    53    12    50    1
    54    13    51    1
    55    14    52    1
    56    15    53    1
    57    17    54    1
    58    18    55    1
    59    19    56    1
    60    19    57    1
    61    21    58    1
    62    22    59    1
    63    30    60    1
    64    31    61    1
    65    32    62    1
    66    33    63    1
    67    38    64    1
    68    40    65    1
    69    41    66    1
    70    43    67    1
    71    44    68    1
    72    45    69    1
@<TRIPOS>MOLECULE
19
 77 81 0 0 0
SMALL
GASTEIGER

@<TRIPOS>ATOM
      1 O           0.0025   -3.9107   -5.3150 O.2     1  UNL1       -0.2917
      2 C           0.3053   -3.2923   -4.3118 C.2     1  UNL1        0.1740
      3 C          -0.6478   -3.0498   -3.1690 C.ar    1  UNL1        0.1007
      4 C           1.6569   -2.6142   -4.2412 C.3     1  UNL1        0.0520
      5 C          -0.1788   -2.3648   -2.0420 C.ar    1  UNL1        0.1389
      6 C          -1.9928   -3.4568   -3.1998 C.ar    1  UNL1        0.1343
      7 C           2.1693   -2.4974   -2.7927 C.3     1  UNL1        0.1323
      8 O           1.1284   -1.9382   -1.9577 O.3     1  UNL1       -0.4828
      9 C          -1.0296   -2.0611   -0.9854 C.ar    1  UNL1        0.0229
     10 O          -2.5083   -4.1209   -4.2780 O.3     1  UNL1       -0.5058
     11 C          -2.8470   -3.1428   -2.1372 C.ar    1  UNL1        0.0226
     12 C           3.3774   -1.5767   -2.7157 C.ar    1  UNL1       -0.0033
     13 C          -2.3671   -2.4348   -1.0294 C.ar    1  UNL1        0.1310
     14 C           3.2029   -0.1985   -2.5727 C.ar    1  UNL1       -0.0098
     15 C           4.6667   -2.0917   -2.8266 C.ar    1  UNL1       -0.0514
     16 O          -3.1573   -2.0616    0.0437 O.3     1  UNL1       -0.4606
     17 C           4.2926    0.6669   -2.5381 C.ar    1  UNL1        0.1588
     18 C           5.7635   -1.2342   -2.8033 C.ar    1  UNL1       -0.0159
     19 C          -4.6050   -2.0240    0.0147 C.3     1  UNL1        0.2308
     20 O           4.0223    1.9987   -2.3855 O.3     1  UNL1       -0.5033
     21 C           5.5949    0.1440   -2.6656 C.ar    1  UNL1        0.1613
     22 O          -5.0825   -1.1370   -1.0344 O.3     1  UNL1       -0.3313
     23 C          -5.1157   -1.5130    1.3835 C.3     1  UNL1        0.1454
     24 O           6.7637    0.8940   -2.6766 O.3     1  UNL1       -0.4915
     25 C          -4.6657    0.2536   -0.9372 C.3     1  UNL1        0.1144
     26 O          -4.5852   -2.3255    2.4410 O.3     1  UNL1       -0.3829
     27 C          -4.7138   -0.0300    1.5889 C.3     1  UNL1        0.1152
     28 C           6.8397    2.3375   -2.6362 C.3     1  UNL1        0.0790
     29 C          -5.1806    0.8442    0.3999 C.3     1  UNL1        0.1120
     30 C          -5.2170    1.0008   -2.1716 C.3     1  UNL1        0.0796
     31 O          -5.3179    0.4772    2.7795 O.3     1  UNL1       -0.3864
     32 O          -6.6145    0.9291    0.3951 O.3     1  UNL1       -0.3865
     33 O          -4.8208    2.3954   -2.1384 O.3     1  UNL1       -0.3461
     34 C          -5.4449    3.1978   -3.1760 C.3     1  UNL1        0.1879
     35 O          -4.9890    2.7912   -4.4947 O.3     1  UNL1       -0.3431
     36 C          -5.1298    4.6989   -2.9625 C.3     1  UNL1        0.1341
     37 C          -3.5706    2.9694   -4.7561 C.3     1  UNL1        0.0873
     38 O          -5.4908    5.0797   -1.6296 O.3     1  UNL1       -0.3841
     39 C          -3.6351    4.9992   -3.2398 C.3     1  UNL1        0.1140
     40 C          -3.2219    4.4734   -4.6360 C.3     1  UNL1        0.1095
     41 C          -3.2575    2.4009   -6.1551 C.3     1  UNL1       -0.0361
     42 O          -3.3972    6.4101   -3.1971 O.3     1  UNL1       -0.3864
     43 O          -3.8986    5.2186   -5.6589 O.3     1  UNL1       -0.3866
     44 H           1.5640   -1.6166   -4.6773 H       1  UNL1        0.0385
     45 H           2.3814   -3.1732   -4.8387 H       1  UNL1        0.0385
     46 H           2.4103   -3.4954   -2.4128 H       1  UNL1        0.0789
     47 H          -0.6490   -1.5160   -0.1247 H       1  UNL1        0.0691
     48 H          -1.7938   -4.2368   -4.9488 H       1  UNL1        0.2922
     49 H          -3.8898   -3.4454   -2.1887 H       1  UNL1        0.0691
     50 H           2.1999    0.2142   -2.4939 H       1  UNL1        0.0659
     51 H           4.8223   -3.1616   -2.9449 H       1  UNL1        0.0623
     52 H           6.7657   -1.6447   -2.9018 H       1  UNL1        0.0655
     53 H          -4.9818   -3.0398   -0.1851 H       1  UNL1        0.1084
     54 H           3.0657    2.1228   -2.2335 H       1  UNL1        0.2923
     55 H          -6.2059   -1.5959    1.3992 H       1  UNL1        0.0683
     56 H          -3.5728    0.2954   -0.9557 H       1  UNL1        0.0647
     57 H          -3.6166   -2.2031    2.4875 H       1  UNL1        0.2102
     58 H          -3.6259    0.0364    1.6797 H       1  UNL1        0.0648
     59 H           7.8882    2.6370   -2.7065 H       1  UNL1        0.0660
     60 H           6.4210    2.6978   -1.6929 H       1  UNL1        0.0660
     61 H           6.2841    2.7564   -3.4797 H       1  UNL1        0.0660
     62 H          -4.7719    1.8513    0.5244 H       1  UNL1        0.0647
     63 H          -6.3090    0.9401   -2.1852 H       1  UNL1        0.0587
     64 H          -4.8268    0.5416   -3.0841 H       1  UNL1        0.0587
     65 H          -6.2270    0.7308    2.5287 H       1  UNL1        0.2100
     66 H          -6.9663    0.0833    0.0668 H       1  UNL1        0.2100
     67 H          -6.5330    3.0349   -3.1259 H       1  UNL1        0.0937
     68 H          -5.7379    5.2814   -3.6601 H       1  UNL1        0.0671
     69 H          -3.0001    2.4065   -4.0118 H       1  UNL1        0.0621
     70 H          -5.2487    4.3578   -1.0204 H       1  UNL1        0.2101
     71 H          -3.0237    4.5091   -2.4766 H       1  UNL1        0.0648
     72 H          -2.1431    4.6060   -4.7588 H       1  UNL1        0.0646
     73 H          -3.8805    2.8691   -6.9209 H       1  UNL1        0.0255
     74 H          -3.4470    1.3255   -6.1764 H       1  UNL1        0.0255
     75 H          -2.2093    2.5693   -6.4121 H       1  UNL1        0.0255
     76 H          -3.7288    6.7828   -4.0379 H       1  UNL1        0.2100
     77 H          -4.7757    4.8126   -5.7912 H       1  UNL1        0.2100
@<TRIPOS>BOND
     1     1     2    2
     2     2     3    1
     3     2     4    1
     4     3     5   ar
     5     3     6   ar
     6     4     7    1
     7     5     8    1
     8     5     9   ar
     9     6    10    1
    10     6    11   ar
    11     7    12    1
    12     9    13   ar
    13    12    14   ar
    14    12    15   ar
    15    13    16    1
    16    14    17   ar
    17    15    18   ar
    18    16    19    1
    19    17    20    1
    20    17    21   ar
    21    19    22    1
    22    19    23    1
    23    21    24    1
    24    22    25    1
    25    23    26    1
    26    23    27    1
    27    24    28    1
    28    25    29    1
    29    25    30    1
    30    27    31    1
    31    29    32    1
    32    30    33    1
    33    33    34    1
    34    34    35    1
    35    34    36    1
    36    35    37    1
    37    36    38    1
    38    36    39    1
    39    37    40    1
    40    37    41    1
    41    39    42    1
    42    40    43    1
    43     7     8    1
    44    11    13   ar
    45    18    21   ar
    46    27    29    1
    47    39    40    1
    48     4    44    1
    49     4    45    1
    50     7    46    1
    51     9    47    1
    52    10    48    1
    53    11    49    1
    54    14    50    1
    55    15    51    1
    56    18    52    1
    57    19    53    1
    58    20    54    1
    59    23    55    1
    60    25    56    1
    61    26    57    1
    62    27    58    1
    63    28    59    1
    64    28    60    1
    65    28    61    1
    66    29    62    1
    67    30    63    1
    68    30    64    1
    69    31    65    1
    70    32    66    1
    71    34    67    1
    72    36    68    1
    73    37    69    1
    74    38    70    1
    75    39    71    1
    76    40    72    1
    77    41    73    1
    78    41    74    1
    79    41    75    1
    80    42    76    1
    81    43    77    1
@<TRIPOS>MOLECULE
20
 17 17 0 0 0
SMALL
GASTEIGER

@<TRIPOS>ATOM
      1 O           2.2421   -0.0324    0.0166 O.3     1  UNL1       -0.4951
      2 C           0.8589   -0.0393    0.0121 C.ar    1  UNL1        0.1203
      3 C           3.0434   -1.2368    0.0160 C.3     1  UNL1        0.0788
      4 C           0.1116   -1.2226    0.0088 C.ar    1  UNL1       -0.0165
      5 C           0.2013    1.1904    0.0080 C.ar    1  UNL1       -0.0165
      6 C          -1.2811   -1.1688   -0.0012 C.ar    1  UNL1       -0.0167
      7 C          -1.1912    1.2430   -0.0017 C.ar    1  UNL1       -0.0167
      8 C          -1.9332    0.0635   -0.0074 C.ar    1  UNL1        0.1171
      9 O          -3.2952    0.1203   -0.0200 O.3     1  UNL1       -0.5068
     10 H           4.1003   -0.9576    0.0066 H       1  UNL1        0.0660
     11 H           2.8152   -1.8263   -0.8762 H       1  UNL1        0.0660
     12 H           2.8285   -1.8179    0.9170 H       1  UNL1        0.0660
     13 H           0.5976   -2.1935    0.0129 H       1  UNL1        0.0655
     14 H           0.7764    2.1126    0.0110 H       1  UNL1        0.0655
     15 H          -1.8537   -2.0929   -0.0046 H       1  UNL1        0.0655
     16 H          -1.6963    2.2059   -0.0058 H       1  UNL1        0.0655
     17 H          -3.6680   -0.7796   -0.0329 H       1  UNL1        0.2921
@<TRIPOS>BOND
     1     1     2    1
     2     1     3    1
     3     2     4   ar
     4     2     5   ar
     5     4     6   ar
     6     5     7   ar
     7     6     8   ar
     8     8     9    1
     9     7     8   ar
    10     3    10    1
    11     3    11    1
    12     3    12    1
    13     4    13    1
    14     5    14    1
    15     6    15    1
    16     7    16    1
    17     9    17    1
@<TRIPOS>MOLECULE
21
 16 16 0 0 0
SMALL
GASTEIGER

@<TRIPOS>ATOM
      1 O           1.3226    0.7608    0.6420 O.2     1  UNL1       -0.2451
      2 C           2.4306    0.3261    0.4008 C.2     1  UNL1        0.3368
      3 O           3.0144   -0.5133    1.2150 O.3     1  UNL1       -0.4771
      4 C           3.2377    0.7431   -0.7988 C.ar    1  UNL1        0.0591
      5 C           2.7328    1.7286   -1.6536 C.ar    1  UNL1       -0.0443
      6 C           4.4863    0.1741   -1.0877 C.ar    1  UNL1       -0.0443
      7 C           3.4714    2.1658   -2.7512 C.ar    1  UNL1       -0.0194
      8 C           5.2174    0.5997   -2.1949 C.ar    1  UNL1       -0.0194
      9 C           4.7190    1.6061   -3.0179 C.ar    1  UNL1        0.1169
     10 O           5.4609    2.0450   -4.0720 O.3     1  UNL1       -0.5068
     11 H           3.9263   -0.6334    0.9032 H       1  UNL1        0.2954
     12 H           1.7627    2.1793   -1.4558 H       1  UNL1        0.0627
     13 H           4.9028   -0.6113   -0.4631 H       1  UNL1        0.0627
     14 H           3.0707    2.9466   -3.3934 H       1  UNL1        0.0654
     15 H           6.1848    0.1513   -2.4100 H       1  UNL1        0.0654
     16 H           5.0562    2.8443   -4.4545 H       1  UNL1        0.2921
@<TRIPOS>BOND
     1     1     2    2
     2     2     3    1
     3     2     4    1
     4     4     5   ar
     5     4     6   ar
     6     5     7   ar
     7     6     8   ar
     8     7     9   ar
     9     9    10    1
    10     8     9   ar
    11     3    11    1
    12     5    12    1
    13     6    13    1
    14     7    14    1
    15     8    15    1
    16    10    16    1
@<TRIPOS>MOLECULE
22
 28 30 0 0 0
SMALL
GASTEIGER

@<TRIPOS>ATOM
      1 O          -1.9267    1.9256    0.0701 O.2     1  UNL1       -0.2870
      2 C          -1.4689    0.8007    0.0192 C.ar    1  UNL1        0.1931
      3 C          -0.0306    0.4950   -0.0037 C.ar    1  UNL1        0.0640
      4 C          -2.3008   -0.4267   -0.0227 C.ar    1  UNL1        0.0288
      5 C           0.2864   -0.8463   -0.0660 C.ar    1  UNL1        0.1392
      6 C           1.0498    1.4515    0.0350 C.ar    1  UNL1       -0.0474
      7 C          -1.8231   -1.4445   -0.0670 C.ar    1  UNL1        0.1427
      8 O          -0.7483   -1.7692   -0.1086 O.2     1  UNL1       -0.4545
      9 C           1.6659   -1.2646   -0.0747 C.ar    1  UNL1       -0.0186
     10 C           2.3794    1.0371    0.0229 C.ar    1  UNL1       -0.0609
     11 C          -2.7123   -2.6500   -0.1683 C.ar    1  UNL1        0.0588
     12 C           2.6873   -0.3195   -0.0299 C.ar    1  UNL1       -0.0582
     13 C          -3.0984   -3.1746   -1.4192 C.ar    1  UNL1        0.1275
     14 C          -3.2187   -3.2384    1.0040 C.ar    1  UNL1       -0.0476
     15 O          -2.6285   -2.6456   -2.5860 O.3     1  UNL1       -0.5061
     16 C          -3.9819   -4.2516   -1.4794 C.ar    1  UNL1       -0.0195
     17 C          -4.0937   -4.3201    0.9270 C.ar    1  UNL1       -0.0609
     18 C          -4.4792   -4.8230   -0.3117 C.ar    1  UNL1       -0.0583
     19 H          -3.3754   -0.2647   -0.0129 H       1  UNL1        0.0693
     20 H           0.8097    2.5119    0.0742 H       1  UNL1        0.0626
     21 H           1.9052   -2.3242   -0.1139 H       1  UNL1        0.0654
     22 H           3.1776    1.7749    0.0549 H       1  UNL1        0.0618
     23 H           3.7256   -0.6412   -0.0364 H       1  UNL1        0.0619
     24 H          -2.9364   -2.8514    1.9801 H       1  UNL1        0.0626
     25 H          -1.8726   -2.0619   -2.3836 H       1  UNL1        0.2922
     26 H          -4.2854   -4.6500   -2.4450 H       1  UNL1        0.0654
     27 H          -4.4823   -4.7684    1.8385 H       1  UNL1        0.0618
     28 H          -5.1679   -5.6625   -0.3685 H       1  UNL1        0.0619
@<TRIPOS>BOND
     1     1     2    2
     2     2     3   ar
     3     2     4   ar
     4     3     5   ar
     5     3     6   ar
     6     4     7   ar
     7     5     8   ar
     8     5     9   ar
     9     6    10   ar
    10     7    11    1
    11     9    12   ar
    12    11    13   ar
    13    11    14   ar
    14    13    15    1
    15    13    16   ar
    16    14    17   ar
    17    16    18   ar
    18     7     8   ar
    19    10    12   ar
    20    17    18   ar
    21     4    19    1
    22     6    20    1
    23     9    21    1
    24    10    22    1
    25    12    23    1
    26    14    24    1
    27    15    25    1
    28    16    26    1
    29    17    27    1
    30    18    28    1
@<TRIPOS>MOLECULE
23
 14 14 0 0 0
SMALL
GASTEIGER

@<TRIPOS>ATOM
      1 O          -2.7613    0.0270    0.0008 O.3     1  UNL1       -0.5068
      2 C          -1.3996    0.0320    0.0035 C.ar    1  UNL1        0.1171
      3 C          -0.6927   -1.1706    0.0019 C.ar    1  UNL1       -0.0167
      4 C          -0.7132    1.2453    0.0064 C.ar    1  UNL1       -0.0167
      5 C           0.7007   -1.1587    0.0006 C.ar    1  UNL1       -0.0167
      6 C           0.6800    1.2571    0.0051 C.ar    1  UNL1       -0.0167
      7 C           1.3869    0.0557    0.0011 C.ar    1  UNL1        0.1171
      8 O           2.7485    0.0733   -0.0039 O.3     1  UNL1       -0.5068
      9 H          -3.0885   -0.8894   -0.0205 H       1  UNL1        0.2921
     10 H          -1.2228   -2.1199    0.0013 H       1  UNL1        0.0655
     11 H          -1.2627    2.1835    0.0083 H       1  UNL1        0.0655
     12 H           1.2468   -2.0989   -0.0011 H       1  UNL1        0.0655
     13 H           1.2136    2.2045    0.0059 H       1  UNL1        0.0655
     14 H           3.0903   -0.8378   -0.0206 H       1  UNL1        0.2921
@<TRIPOS>BOND
     1     1     2    1
     2     2     3   ar
     3     2     4   ar
     4     3     5   ar
     5     4     6   ar
     6     5     7   ar
     7     7     8    1
     8     6     7   ar
     9     1     9    1
    10     3    10    1
    11     4    11    1
    12     5    12    1
    13     6    13    1
    14     8    14    1
@<TRIPOS>MOLECULE
24
 31 32 0 0 0
SMALL
GASTEIGER

@<TRIPOS>ATOM
      1 SI         -0.9446   -0.3946   -0.2172 Si      1  UNL1        0.0000
      2 O          -0.3685   -1.1161   -0.8784 O.2     1  UNL1        0.0000
      3 C          -0.0909   -0.0109    0.4716 C.3     1  UNL1        0.0000
      4 C          -1.7142   -1.1164    0.2707 C.3     1  UNL1        0.0000
      5 C          -1.3589    0.3617   -0.9973 C.3     1  UNL1        0.0000
      6 C           0.1487   -1.8837   -1.9118 C.2     1  UNL1        0.0000
      7 C           1.6007   -1.9017   -2.1406 C.2     1  UNL1        0.0000
      8 C          -0.7317   -2.5622   -2.7183 C.2     1  UNL1        0.0000
      9 O           2.3803   -1.3048   -1.4232 O.2     1  UNL1        0.0000
     10 C           2.0732   -2.6833   -3.3350 C.ar    1  UNL1        0.0000
     11 C          -0.3031   -3.3419   -3.8801 C.2     1  UNL1        0.0000
     12 C           1.1670   -3.3625   -4.1648 C.ar    1  UNL1        0.0000
     13 C           3.4403   -2.7286   -3.6344 C.ar    1  UNL1        0.0000
     14 O          -1.1002   -3.9266   -4.5874 O.2     1  UNL1        0.0000
     15 C           1.6422   -4.0620   -5.2808 C.ar    1  UNL1        0.0000
     16 C           3.9024   -3.4269   -4.7472 C.ar    1  UNL1        0.0000
     17 C           3.0025   -4.0910   -5.5732 C.ar    1  UNL1        0.0000
     18 H           0.4495   -0.6909    1.1556 H       1  UNL1        0.0000
     19 H          -0.5032    0.7170    1.1927 H       1  UNL1        0.0000
     20 H           0.7587    0.5669    0.0638 H       1  UNL1        0.0000
     21 H          -1.3909   -1.9456    0.9268 H       1  UNL1        0.0000
     22 H          -2.4727   -1.6395   -0.3398 H       1  UNL1        0.0000
     23 H          -2.3653   -0.5512    0.9598 H       1  UNL1        0.0000
     24 H          -0.6737    0.9800   -1.6061 H       1  UNL1        0.0000
     25 H          -1.9536    1.1424   -0.4942 H       1  UNL1        0.0000
     26 H          -2.0685    0.0346   -1.7794 H       1  UNL1        0.0000
     27 H          -1.8021   -2.5359   -2.5398 H       1  UNL1        0.0000
     28 H           4.1609   -2.2133   -3.0039 H       1  UNL1        0.0000
     29 H           0.9529   -4.5859   -5.9382 H       1  UNL1        0.0000
     30 H           4.9654   -3.4494   -4.9736 H       1  UNL1        0.0000
     31 H           3.3595   -4.6318   -6.4461 H       1  UNL1        0.0000
@<TRIPOS>BOND
     1     1     2    1
     2     1     3    1
     3     1     4    1
     4     1     5    1
     5     2     6    1
     6     6     7    1
     7     6     8    2
     8     7     9    2
     9     7    10    1
    10     8    11    1
    11    10    12   ar
    12    10    13   ar
    13    11    14    2
    14    12    15   ar
    15    13    16   ar
    16    15    17   ar
    17    11    12    1
    18    16    17   ar
    19     3    18    1
    20     3    19    1
    21     3    20    1
    22     4    21    1
    23     4    22    1
    24     4    23    1
    25     5    24    1
    26     5    25    1
    27     5    26    1
    28     8    27    1
    29    13    28    1
    30    15    29    1
    31    16    30    1
    32    17    31    1
@<TRIPOS>MOLECULE
25
 19 19 0 0 0
SMALL
GASTEIGER

@<TRIPOS>ATOM
      1 O           1.3409   -0.9150   -0.0056 O.2     1  UNL1       -0.2450
      2 C           2.1686   -0.0228   -0.0043 C.2     1  UNL1        0.3389
      3 O           2.4671    0.6982   -1.1103 O.3     1  UNL1       -0.4645
      4 C           2.9134    0.3726    1.2399 C.ar    1  UNL1        0.0592
      5 C           1.8403    0.3548   -2.3697 C.3     1  UNL1        0.0820
      6 C           2.6354   -0.2665    2.4532 C.ar    1  UNL1       -0.0443
      7 C           3.8910    1.3742    1.2097 C.ar    1  UNL1       -0.0443
      8 C           3.3173    0.0919    3.6153 C.ar    1  UNL1       -0.0194
      9 C           4.5784    1.7260    2.3697 C.ar    1  UNL1       -0.0194
     10 C           4.2908    1.0868    3.5740 C.ar    1  UNL1        0.1169
     11 O           4.9642    1.4401    4.7046 O.3     1  UNL1       -0.5068
     12 H           2.0787    1.1268   -3.1057 H       1  UNL1        0.0661
     13 H           0.7555    0.2976   -2.2402 H       1  UNL1        0.0661
     14 H           2.2247   -0.6102   -2.7116 H       1  UNL1        0.0661
     15 H           1.8777   -1.0442    2.5014 H       1  UNL1        0.0627
     16 H           4.1324    1.8833    0.2808 H       1  UNL1        0.0627
     17 H           3.0836   -0.4098    4.5511 H       1  UNL1        0.0654
     18 H           5.3409    2.5004    2.3323 H       1  UNL1        0.0654
     19 H           4.6508    0.9115    5.4602 H       1  UNL1        0.2921
@<TRIPOS>BOND
     1     1     2    2
     2     2     3    1
     3     2     4    1
     4     3     5    1
     5     4     6   ar
     6     4     7   ar
     7     6     8   ar
     8     7     9   ar
     9     8    10   ar
    10    10    11    1
    11     9    10   ar
    12     5    12    1
    13     5    13    1
    14     5    14    1
    15     6    15    1
    16     7    16    1
    17     8    17    1
    18     9    18    1
    19    11    19    1
@<TRIPOS>MOLECULE
27
 16 16 0 0 0
SMALL
GASTEIGER

@<TRIPOS>ATOM
      1 O           1.5262    0.2832    1.6034 O.2     1  UNL1       -0.2451
      2 C           2.5146    0.1287    0.9156 C.2     1  UNL1        0.3369
      3 O           3.0107   -1.0572    0.6996 O.3     1  UNL1       -0.4771
      4 C           3.2641    1.2581    0.2664 C.ar    1  UNL1        0.0623
      5 C           2.8213    2.5658    0.4727 C.ar    1  UNL1       -0.0062
      6 C           4.3935    1.0442   -0.5385 C.ar    1  UNL1       -0.0475
      7 C           3.4930    3.6394   -0.1057 C.ar    1  UNL1        0.1176
      8 C           5.0604    2.1210   -1.1212 C.ar    1  UNL1       -0.0575
      9 O           3.0519    4.9042    0.1203 O.3     1  UNL1       -0.5067
     10 C           4.6117    3.4207   -0.9048 C.ar    1  UNL1       -0.0201
     11 H           3.8019   -0.9136    0.1572 H       1  UNL1        0.2954
     12 H           1.9478    2.7514    1.0937 H       1  UNL1        0.0662
     13 H           4.7681    0.0418   -0.7271 H       1  UNL1        0.0626
     14 H           5.9337    1.9468   -1.7452 H       1  UNL1        0.0619
     15 H           2.2901    4.8597    0.7248 H       1  UNL1        0.2921
     16 H           5.1345    4.2607   -1.3569 H       1  UNL1        0.0654
@<TRIPOS>BOND
     1     1     2    2
     2     2     3    1
     3     2     4    1
     4     4     5   ar
     5     4     6   ar
     6     5     7   ar
     7     6     8   ar
     8     7     9    1
     9     7    10   ar
    10     8    10   ar
    11     3    11    1
    12     5    12    1
    13     6    13    1
    14     8    14    1
    15     9    15    1
    16    10    16    1
@<TRIPOS>MOLECULE
28
 31 33 0 0 0
SMALL
GASTEIGER

@<TRIPOS>ATOM
      1 O           0.9607    0.2620    0.0775 O.2     1  UNL1       -0.2869
      2 C           2.1732    0.1661    0.0710 C.ar    1  UNL1        0.1964
      3 C           2.9468   -1.1039    0.0534 C.ar    1  UNL1        0.1099
      4 C           2.9835    1.3810    0.0607 C.ar    1  UNL1        0.0237
      5 C           4.3486   -1.0167    0.0449 C.ar    1  UNL1        0.1874
      6 C           2.3252   -2.4374    0.0437 C.ar    1  UNL1        0.1454
      7 C           4.3528    1.3359    0.0589 C.ar    1  UNL1        0.1064
      8 O           5.0714    0.1660    0.1000 O.2     1  UNL1       -0.4558
      9 C           5.1842   -2.2045    0.0081 C.ar    1  UNL1        0.2063
     10 O           0.9373   -2.4114    0.0335 O.3     1  UNL1       -0.4936
     11 C           3.1846   -3.5928    0.1102 C.ar    1  UNL1        0.0663
     12 C           5.1642    2.6003    0.0529 C.3     1  UNL1       -0.0062
     13 O           6.5502   -2.4406    0.0373 O.3     1  UNL1       -0.4884
     14 C           4.5830   -3.4966    0.1848 C.ar    1  UNL1        0.1834
     15 C           0.0727   -3.5663    0.0477 C.3     1  UNL1        0.0788
     16 C           2.8753   -4.9886    0.0520 C.ar    1  UNL1       -0.0125
     17 C           7.5039   -1.3551    0.0606 C.3     1  UNL1        0.0791
     18 O           5.1593   -4.7365    0.0710 O.2     1  UNL1       -0.4590
     19 C           4.1007   -5.6198    0.0472 C.ar    1  UNL1        0.0934
     20 H           2.4330    2.3192    0.0493 H       1  UNL1        0.0689
     21 H           4.5327    3.4918    0.0486 H       1  UNL1        0.0308
     22 H           5.8073    2.6389   -0.8296 H       1  UNL1        0.0308
     23 H           5.8059    2.6464    0.9351 H       1  UNL1        0.0308
     24 H          -0.9653   -3.2226    0.0493 H       1  UNL1        0.0660
     25 H           0.2579   -4.1542    0.9508 H       1  UNL1        0.0660
     26 H           0.2504   -4.1662   -0.8486 H       1  UNL1        0.0660
     27 H           1.9020   -5.4590    0.0081 H       1  UNL1        0.0656
     28 H           8.5168   -1.7646    0.0637 H       1  UNL1        0.0660
     29 H           7.3499   -0.7547    0.9621 H       1  UNL1        0.0660
     30 H           7.3635   -0.7303   -0.8264 H       1  UNL1        0.0660
     31 H           4.3837   -6.6656    0.0201 H       1  UNL1        0.1030
@<TRIPOS>BOND
     1     1     2    2
     2     2     3   ar
     3     2     4   ar
     4     3     5   ar
     5     3     6   ar
     6     4     7   ar
     7     5     8   ar
     8     5     9   ar
     9     6    10    1
    10     6    11   ar
    11     7    12    1
    12     9    13    1
    13     9    14   ar
    14    10    15    1
    15    11    16   ar
    16    13    17    1
    17    14    18   ar
    18    16    19   ar
    19     7     8   ar
    20    11    14   ar
    21    18    19   ar
    22     4    20    1
    23    12    21    1
    24    12    22    1
    25    12    23    1
    26    15    24    1
    27    15    25    1
    28    15    26    1
    29    16    27    1
    30    17    28    1
    31    17    29    1
    32    17    30    1
    33    19    31    1
@<TRIPOS>MOLECULE
29
 16 16 0 0 0
SMALL
GASTEIGER

@<TRIPOS>ATOM
      1 O           1.8560    1.1186    0.0093 O.2     1  UNL1       -0.2838
      2 C           0.7526    0.6056    0.0133 C.ar    1  UNL1        0.2263
      3 C           0.5316   -0.8439    0.0260 C.ar    1  UNL1        0.1992
      4 C          -0.4887    1.3783   -0.0086 C.ar    1  UNL1        0.0292
      5 O           1.6594   -1.5899    0.0308 O.3     1  UNL1       -0.5012
      6 C          -0.7370   -1.3799    0.0257 C.ar    1  UNL1        0.1372
      7 C          -1.7192    0.7585   -0.0117 C.ar    1  UNL1        0.1339
      8 O          -1.8984   -0.6175    0.0181 O.2     1  UNL1       -0.4616
      9 C          -2.9739    1.5879   -0.0518 C.3     1  UNL1        0.1020
     10 O          -3.8148    1.2839    1.0609 O.3     1  UNL1       -0.3873
     11 H          -0.3789    2.4580   -0.0272 H       1  UNL1        0.0691
     12 H           2.4112   -0.9622    0.0186 H       1  UNL1        0.2924
     13 H          -0.9903   -2.4332    0.0318 H       1  UNL1        0.1069
     14 H          -3.5278    1.3841   -0.9722 H       1  UNL1        0.0638
     15 H          -2.7440    2.6568   -0.0317 H       1  UNL1        0.0638
     16 H          -3.9924    0.3240    1.0469 H       1  UNL1        0.2100
@<TRIPOS>BOND
     1     1     2    2
     2     2     3   ar
     3     2     4   ar
     4     3     5    1
     5     3     6   ar
     6     4     7   ar
     7     6     8   ar
     8     7     9    1
     9     9    10    1
    10     7     8   ar
    11     4    11    1
    12     5    12    1
    13     6    13    1
    14     9    14    1
    15     9    15    1
    16    10    16    1
@<TRIPOS>MOLECULE
32
 22 22 0 0 0
SMALL
GASTEIGER

@<TRIPOS>ATOM
      1 O           1.7376   -0.7894    0.4319 O.2     1  UNL1       -0.2448
      2 C           2.4596   -0.2719   -0.4008 C.2     1  UNL1        0.3425
      3 O           2.7448   -0.9026   -1.5680 O.3     1  UNL1       -0.4644
      4 C           3.0724    1.1024   -0.2440 C.ar    1  UNL1        0.1005
      5 C           2.1670   -2.2065   -1.8202 C.3     1  UNL1        0.0820
      6 C           2.8462    1.9144    0.8870 C.ar    1  UNL1        0.1341
      7 C           3.9023    1.6032   -1.2579 C.ar    1  UNL1       -0.0442
      8 O           2.0515    1.5060    1.9392 O.3     1  UNL1       -0.4943
      9 C           3.4423    3.1720    0.9889 C.ar    1  UNL1       -0.0191
     10 C           4.4909    2.8614   -1.1548 C.ar    1  UNL1       -0.0608
     11 C           0.6223    1.7092    1.8768 C.3     1  UNL1        0.0788
     12 C           4.2617    3.6482   -0.0310 C.ar    1  UNL1       -0.0583
     13 H           2.5005   -2.5613   -2.7979 H       1  UNL1        0.0661
     14 H           1.0760   -2.1278   -1.8109 H       1  UNL1        0.0661
     15 H           2.4933   -2.9052   -1.0442 H       1  UNL1        0.0661
     16 H           4.1053    1.0119   -2.1470 H       1  UNL1        0.0627
     17 H           3.2671    3.7854    1.8683 H       1  UNL1        0.0654
     18 H           5.1322    3.2275   -1.9529 H       1  UNL1        0.0618
     19 H           0.3898    2.7498    2.1175 H       1  UNL1        0.0660
     20 H           0.1419    1.0455    2.6007 H       1  UNL1        0.0660
     21 H           0.2601    1.4705    0.8726 H       1  UNL1        0.0660
     22 H           4.7233    4.6287    0.0525 H       1  UNL1        0.0619
@<TRIPOS>BOND
     1     1     2    2
     2     2     3    1
     3     2     4    1
     4     3     5    1
     5     4     6   ar
     6     4     7   ar
     7     6     8    1
     8     6     9   ar
     9     7    10   ar
    10     8    11    1
    11     9    12   ar
    12    10    12   ar
    13     5    13    1
    14     5    14    1
    15     5    15    1
    16     7    16    1
    17     9    17    1
    18    10    18    1
    19    11    19    1
    20    11    20    1
    21    11    21    1
    22    12    22    1
@<TRIPOS>MOLECULE
33
 29 30 0 0 0
SMALL
GASTEIGER

@<TRIPOS>ATOM
      1 O           0.8481   -0.0827   -0.0873 O.2     1  UNL1       -0.2862
      2 C           2.0654   -0.0418   -0.0999 C.ar    1  UNL1        0.2049
      3 C           2.8598    1.1931   -0.1517 C.ar    1  UNL1        0.1221
      4 C           2.8681   -1.2572   -0.0823 C.ar    1  UNL1        0.0650
      5 C           2.2336    2.5420   -0.2017 C.2     1  UNL1        0.3420
      6 C           4.2425    1.1691   -0.1600 C.ar    1  UNL1        0.0242
      7 C           4.2647   -1.2653   -0.0876 C.ar    1  UNL1        0.1446
      8 C           2.2357   -2.5695   -0.0633 C.ar    1  UNL1       -0.0457
      9 O           2.8603    3.5822   -0.2508 O.2     1  UNL1       -0.2449
     10 O           0.9266    2.5920   -0.1909 O.3     1  UNL1       -0.4770
     11 N           4.9478   -0.0366   -0.0995 N.ar    1  UNL1       -0.3312
     12 N           4.8691   -2.2078   -0.0788 N.ar    1  UNL1       -0.2341
     13 C           3.0429   -3.7026   -0.0559 C.ar    1  UNL1       -0.0398
     14 C           6.4230    0.0494   -0.0794 C.3     1  UNL1        0.0218
     15 C           4.4133   -3.4778   -0.0629 C.ar    1  UNL1        0.0406
     16 C           7.0473   -0.0450   -1.4832 C.3     1  UNL1       -0.0470
     17 C           5.4231   -4.6099   -0.0586 C.3     1  UNL1       -0.0223
     18 H           4.8574    2.0610   -0.2013 H       1  UNL1        0.0819
     19 H           1.1547   -2.6853   -0.0592 H       1  UNL1        0.0626
     20 H           0.6017    1.6677   -0.1483 H       1  UNL1        0.2954
     21 H           2.6226   -4.7055   -0.0458 H       1  UNL1        0.0636
     22 H           6.8327   -0.7462    0.5497 H       1  UNL1        0.0489
     23 H           6.7222    0.9994    0.3728 H       1  UNL1        0.0489
     24 H           6.7909   -0.9956   -1.9563 H       1  UNL1        0.0247
     25 H           8.1352    0.0234   -1.4173 H       1  UNL1        0.0247
     26 H           6.6883    0.7675   -2.1188 H       1  UNL1        0.0247
     27 H           6.4370   -4.2344    0.1007 H       1  UNL1        0.0292
     28 H           5.4003   -5.1413   -1.0125 H       1  UNL1        0.0292
     29 H           5.1942   -5.3213    0.7381 H       1  UNL1        0.0292
@<TRIPOS>BOND
     1     1     2    2
     2     2     3   ar
     3     2     4   ar
     4     3     5    1
     5     3     6   ar
     6     4     7   ar
     7     4     8   ar
     8     5     9    2
     9     5    10    1
    10     6    11   ar
    11     7    12   ar
    12     8    13   ar
    13    11    14    1
    14    12    15   ar
    15    14    16    1
    16    15    17    1
    17     7    11   ar
    18    13    15   ar
    19     6    18    1
    20     8    19    1
    21    10    20    1
    22    13    21    1
    23    14    22    1
    24    14    23    1
    25    16    24    1
    26    16    25    1
    27    16    26    1
    28    17    27    1
    29    17    28    1
    30    17    29    1
@<TRIPOS>MOLECULE
34
 53 57 0 0 0
SMALL
GASTEIGER

@<TRIPOS>ATOM
      1 O           2.4563    1.2971    0.1798 O.2     1  UNL1       -0.2448
      2 C           1.6284    0.4201    0.0903 C.2     1  UNL1        0.3439
      3 O           1.9670   -0.8811    0.0260 O.3     1  UNL1       -0.4510
      4 C           0.1652    0.4899    0.0084 C.ar    1  UNL1        0.1108
      5 C           0.8076   -1.7564   -0.0110 C.3     1  UNL1        0.1489
      6 C          -0.7715    1.6168   -0.0041 C.ar    1  UNL1        0.1758
      7 C          -0.3816   -0.8218   -0.0815 C.ar    1  UNL1        0.0123
      8 C           0.8272   -2.6679    1.2452 C.3     1  UNL1        0.0808
      9 O          -0.4926    2.9800    0.0407 O.3     1  UNL1       -0.4906
     10 C          -2.1551    1.2927   -0.0916 C.ar    1  UNL1        0.1623
     11 C          -1.7292   -1.1020   -0.1831 C.ar    1  UNL1       -0.0505
     12 N           0.7812   -1.8329    2.4970 N.3     1  UNL1       -0.2946
     13 C           2.0081   -3.6448    1.1385 C.ar    1  UNL1        0.0223
     14 C           0.8065    3.6037    0.0212 C.3     1  UNL1        0.0790
     15 O          -3.2082    2.2096   -0.1060 O.3     1  UNL1       -0.4914
     16 C          -2.6045   -0.0304   -0.1797 C.ar    1  UNL1       -0.0159
     17 C           1.8408   -2.0907    3.5022 C.3     1  UNL1        0.0033
     18 C          -0.5512   -1.8117    3.1442 C.3     1  UNL1       -0.0120
     19 C           1.9765   -4.7437    0.2623 C.ar    1  UNL1        0.1704
     20 C           3.1701   -3.4044    1.8816 C.ar    1  UNL1       -0.0342
     21 C          -3.1361    3.6528   -0.0349 C.3     1  UNL1        0.0790
     22 C           3.2102   -2.2210    2.8261 C.3     1  UNL1       -0.0143
     23 O           1.0056   -4.9551   -0.7099 O.3     1  UNL1       -0.4910
     24 C           3.0549   -5.7084    0.2368 C.ar    1  UNL1        0.2079
     25 C           4.2806   -4.2406    1.7737 C.ar    1  UNL1       -0.0124
     26 C          -0.4003   -5.1443   -0.4385 C.3     1  UNL1        0.0790
     27 O           3.4139   -6.4091   -0.8833 O.3     1  UNL1       -0.4489
     28 C           4.2192   -5.4564    1.0124 C.ar    1  UNL1        0.1702
     29 C           4.7972   -6.8108   -0.7015 C.3     1  UNL1        0.2334
     30 O           5.3089   -5.9817    0.3776 O.3     1  UNL1       -0.4525
     31 H           0.8652   -2.3649   -0.9186 H       1  UNL1        0.0805
     32 H          -0.0856   -3.2620    1.2402 H       1  UNL1        0.0554
     33 H          -2.0936   -2.1235   -0.2435 H       1  UNL1        0.0623
     34 H           0.6711    4.6873   -0.0173 H       1  UNL1        0.0660
     35 H           1.3573    3.2809   -0.8660 H       1  UNL1        0.0660
     36 H           1.3486    3.3472    0.9348 H       1  UNL1        0.0660
     37 H          -3.6729   -0.2213   -0.2464 H       1  UNL1        0.0655
     38 H           1.6229   -3.0205    4.0376 H       1  UNL1        0.0430
     39 H           1.8669   -1.2714    4.2258 H       1  UNL1        0.0430
     40 H          -1.3225   -1.5074    2.4340 H       1  UNL1        0.0391
     41 H          -0.5504   -1.1029    3.9774 H       1  UNL1        0.0391
     42 H          -0.7966   -2.8063    3.5278 H       1  UNL1        0.0391
     43 H          -4.1503    4.0587   -0.0591 H       1  UNL1        0.0660
     44 H          -2.5734    4.0328   -0.8919 H       1  UNL1        0.0660
     45 H          -2.6492    3.9486    0.8983 H       1  UNL1        0.0660
     46 H           3.9783   -2.3642    3.5898 H       1  UNL1        0.0326
     47 H           3.4521   -1.3061    2.2799 H       1  UNL1        0.0326
     48 H           5.1906   -4.0333    2.3296 H       1  UNL1        0.0658
     49 H          -0.8228   -5.7797   -1.2214 H       1  UNL1        0.0660
     50 H          -0.9078   -4.1780   -0.4652 H       1  UNL1        0.0660
     51 H          -0.5335   -5.6210    0.5360 H       1  UNL1        0.0660
     52 H           5.3785   -6.6719   -1.6259 H       1  UNL1        0.1166
     53 H           4.8227   -7.8644   -0.3803 H       1  UNL1        0.1166
@<TRIPOS>BOND
     1     1     2    2
     2     2     3    1
     3     2     4    1
     4     3     5    1
     5     4     6   ar
     6     4     7   ar
     7     5     8    1
     8     6     9    1
     9     6    10   ar
    10     7    11   ar
    11     8    12    1
    12     8    13    1
    13     9    14    1
    14    10    15    1
    15    10    16   ar
    16    12    17    1
    17    12    18    1
    18    13    19   ar
    19    13    20   ar
    20    15    21    1
    21    17    22    1
    22    19    23    1
    23    19    24   ar
    24    20    25   ar
    25    23    26    1
    26    24    27    1
    27    24    28   ar
    28    27    29    1
    29    28    30    1
    30     5     7    1
    31    11    16   ar
    32    20    22    1
    33    25    28   ar
    34    29    30    1
    35     5    31    1
    36     8    32    1
    37    11    33    1
    38    14    34    1
    39    14    35    1
    40    14    36    1
    41    16    37    1
    42    17    38    1
    43    17    39    1
    44    18    40    1
    45    18    41    1
    46    18    42    1
    47    21    43    1
    48    21    44    1
    49    21    45    1
    50    22    46    1
    51    22    47    1
    52    25    48    1
    53    26    49    1
    54    26    50    1
    55    26    51    1
    56    29    52    1
    57    29    53    1
@<TRIPOS>MOLECULE
35
 18 19 0 0 0
SMALL
GASTEIGER

@<TRIPOS>ATOM
      1 O           3.4530    1.1050   -0.0080 O.2     1  UNL1       -0.2452
      2 C           2.4333    0.4474   -0.0050 C.ar    1  UNL1        0.3372
      3 O           1.2132    1.0404   -0.0062 O.2     1  UNL1       -0.4220
      4 C           2.4100   -1.0243   -0.0001 C.ar    1  UNL1        0.0236
      5 C           0.0094    0.3645   -0.0015 C.ar    1  UNL1        0.1425
      6 C           1.1842   -1.7720    0.0020 C.ar    1  UNL1       -0.0443
      7 C          -0.0153   -1.0732    0.0006 C.ar    1  UNL1        0.0178
      8 C          -1.2189    1.1093   -0.0033 C.ar    1  UNL1        0.0229
      9 C          -1.2479   -1.7250    0.0016 C.ar    1  UNL1       -0.0476
     10 C          -2.4259    0.4094   -0.0016 C.ar    1  UNL1        0.1204
     11 C          -2.4353   -0.9886    0.0007 C.ar    1  UNL1       -0.0194
     12 O          -3.6114    1.0844   -0.0022 O.3     1  UNL1       -0.5066
     13 H           3.3832   -1.5043    0.0010 H       1  UNL1        0.0689
     14 H           1.1953   -2.8591    0.0043 H       1  UNL1        0.0627
     15 H          -1.2045    2.1964   -0.0058 H       1  UNL1        0.0691
     16 H          -1.2924   -2.8114    0.0028 H       1  UNL1        0.0626
     17 H          -3.3865   -1.5161    0.0017 H       1  UNL1        0.0654
     18 H          -3.4505    2.0457   -0.0019 H       1  UNL1        0.2921
@<TRIPOS>BOND
     1     1     2    2
     2     2     3   ar
     3     2     4   ar
     4     3     5   ar
     5     4     6   ar
     6     5     7   ar
     7     5     8   ar
     8     7     9   ar
     9     8    10   ar
    10     9    11   ar
    11    10    12    1
    12     6     7   ar
    13    10    11   ar
    14     4    13    1
    15     6    14    1
    16     8    15    1
    17     9    16    1
    18    11    17    1
    19    12    18    1
@<TRIPOS>MOLECULE
36
 51 54 0 0 0
SMALL
GASTEIGER

@<TRIPOS>ATOM
      1 O          -2.5374    1.5395    0.0290 O.2     1  UNL1       -0.2869
      2 C          -1.9635    0.4654    0.0145 C.ar    1  UNL1        0.1966
      3 C          -0.5088    0.2939   -0.0922 C.ar    1  UNL1        0.1058
      4 C          -2.6726   -0.8316    0.0454 C.ar    1  UNL1        0.0288
      5 C          -0.0613   -1.0123   -0.1026 C.ar    1  UNL1        0.1520
      6 C           0.4450    1.3508   -0.3276 C.ar    1  UNL1        0.1347
      7 C          -2.1680   -1.8404   -0.0018 C.ar    1  UNL1        0.1392
      8 O          -1.0510   -1.9997   -0.0927 O.2     1  UNL1       -0.4540
      9 C           1.3571   -1.2956   -0.2862 C.ar    1  UNL1        0.0682
     10 O           0.0516    2.6541   -0.2583 O.3     1  UNL1       -0.5058
     11 C           1.7424    1.0544   -0.7218 C.ar    1  UNL1        0.0226
     12 C          -3.0131   -3.1000   -0.0316 C.ar    1  UNL1        0.0176
     13 C           2.1998   -0.2574   -0.7137 C.ar    1  UNL1        0.1296
     14 C           1.8270   -2.5632    0.4696 C.3     1  UNL1        0.1193
     15 C          -2.5668   -4.2521   -0.7113 C.ar    1  UNL1       -0.0476
     16 C          -4.2767   -3.1569    0.5996 C.ar    1  UNL1       -0.0476
     17 O           3.4963   -0.4595   -1.0540 O.3     1  UNL1       -0.5062
     18 O           1.6550   -2.2816    1.8906 O.3     1  UNL1       -0.3609
     19 C           3.2483   -3.2134    0.2597 C.3     1  UNL1        0.1139
     20 C          -3.3560   -5.4027   -0.7643 C.ar    1  UNL1       -0.0195
     21 C          -5.0540   -4.3106    0.5416 C.ar    1  UNL1       -0.0195
     22 C           2.6893   -1.4489    2.4818 C.3     1  UNL1        0.1108
     23 O           3.6497   -3.2595   -1.1137 O.3     1  UNL1       -0.3862
     24 C           4.4117   -2.6055    1.1026 C.3     1  UNL1        0.1121
     25 C          -4.6005   -5.4349   -0.1378 C.ar    1  UNL1        0.1169
     26 C           3.9802   -2.2942    2.5490 C.3     1  UNL1        0.1117
     27 C           2.2066   -0.8921    3.8365 C.3     1  UNL1        0.0729
     28 O           5.4918   -3.5459    1.1572 O.3     1  UNL1       -0.3865
     29 O          -5.3882   -6.5497   -0.1749 O.3     1  UNL1       -0.5068
     30 O           3.7698   -3.5290    3.2486 O.3     1  UNL1       -0.3865
     31 O           1.7311   -1.9353    4.6804 O.3     1  UNL1       -0.3924
     32 H          -3.7490   -0.7081    0.0096 H       1  UNL1        0.0693
     33 H          -0.9062    2.6672   -0.0422 H       1  UNL1        0.2922
     34 H           2.4265    1.8621   -0.9776 H       1  UNL1        0.0691
     35 H           1.1102   -3.3535    0.2280 H       1  UNL1        0.0676
     36 H          -1.6063   -4.2528   -1.2208 H       1  UNL1        0.0626
     37 H          -4.6723   -2.3085    1.1518 H       1  UNL1        0.0626
     38 H           3.5529   -1.3536   -1.4491 H       1  UNL1        0.2922
     39 H           3.1484   -4.2509    0.5904 H       1  UNL1        0.0649
     40 H          -2.9938   -6.2744   -1.3036 H       1  UNL1        0.0654
     41 H          -6.0240   -4.3318    1.0336 H       1  UNL1        0.0654
     42 H           2.8753   -0.5874    1.8350 H       1  UNL1        0.0646
     43 H           4.5753   -3.5942   -1.1254 H       1  UNL1        0.2100
     44 H           4.7763   -1.6845    0.6430 H       1  UNL1        0.0647
     45 H           4.7697   -1.7281    3.0525 H       1  UNL1        0.0647
     46 H           1.3829   -0.1970    3.6508 H       1  UNL1        0.0584
     47 H           3.0161   -0.3492    4.3314 H       1  UNL1        0.0584
     48 H           5.3387   -4.0997    1.9556 H       1  UNL1        0.2100
     49 H          -4.9522   -7.2821   -0.6458 H       1  UNL1        0.2921
     50 H           2.8200   -3.5882    3.4597 H       1  UNL1        0.2100
     51 H           1.0162   -2.3732    4.1900 H       1  UNL1        0.2095
@<TRIPOS>BOND
     1     1     2    2
     2     2     3   ar
     3     2     4   ar
     4     3     5   ar
     5     3     6   ar
     6     4     7   ar
     7     5     8   ar
     8     5     9   ar
     9     6    10    1
    10     6    11   ar
    11     7    12    1
    12     9    13   ar
    13     9    14    1
    14    12    15   ar
    15    12    16   ar
    16    13    17    1
    17    14    18    1
    18    14    19    1
    19    15    20   ar
    20    16    21   ar
    21    18    22    1
    22    19    23    1
    23    19    24    1
    24    20    25   ar
    25    22    26    1
    26    22    27    1
    27    24    28    1
    28    25    29    1
    29    26    30    1
    30    27    31    1
    31     7     8   ar
    32    11    13   ar
    33    21    25   ar
    34    24    26    1
    35     4    32    1
    36    10    33    1
    37    11    34    1
    38    14    35    1
    39    15    36    1
    40    16    37    1
    41    17    38    1
    42    19    39    1
    43    20    40    1
    44    21    41    1
    45    22    42    1
    46    23    43    1
    47    24    44    1
    48    26    45    1
    49    27    46    1
    50    27    47    1
    51    28    48    1
    52    29    49    1
    53    30    50    1
    54    31    51    1
@<TRIPOS>MOLECULE
37
 15 15 0 0 0
SMALL
GASTEIGER

@<TRIPOS>ATOM
      1 O           0.0468    2.0252   -0.0011 O.3     1  UNL1       -0.5009
      2 C           0.0242    0.6567   -0.0197 C.ar    1  UNL1        0.2006
      3 C          -1.1881   -0.0393    0.0192 C.ar    1  UNL1        0.1620
      4 C           1.2289   -0.0487   -0.0451 C.ar    1  UNL1        0.1620
      5 O          -2.3766    0.6313   -0.0214 O.3     1  UNL1       -0.5032
      6 C          -1.1871   -1.4334    0.0622 C.ar    1  UNL1       -0.0163
      7 O           2.4041    0.6381   -0.0880 O.3     1  UNL1       -0.5032
      8 C           1.2272   -1.4420   -0.0127 C.ar    1  UNL1       -0.0163
      9 C           0.0185   -2.1337    0.0472 C.ar    1  UNL1       -0.0546
     10 H          -0.6962    2.3505    0.5407 H       1  UNL1        0.2924
     11 H          -2.2810    1.4183   -0.5892 H       1  UNL1        0.2923
     12 H          -2.1284   -1.9774    0.0941 H       1  UNL1        0.0655
     13 H           2.1721    1.5888   -0.1155 H       1  UNL1        0.2923
     14 H           2.1671   -1.9890   -0.0287 H       1  UNL1        0.0655
     15 H           0.0157   -3.2205    0.0751 H       1  UNL1        0.0620
@<TRIPOS>BOND
     1     1     2    1
     2     2     3   ar
     3     2     4   ar
     4     3     5    1
     5     3     6   ar
     6     4     7    1
     7     4     8   ar
     8     6     9   ar
     9     8     9   ar
    10     1    10    1
    11     5    11    1
    12     6    12    1
    13     7    13    1
    14     8    14    1
    15     9    15    1
@<TRIPOS>MOLECULE
39
 15 15 0 0 0
SMALL
GASTEIGER

@<TRIPOS>ATOM
      1 O          -2.7187    0.1981   -0.0015 O.3     1  UNL1       -0.5065
      2 C          -1.3550    0.1065   -0.0037 C.ar    1  UNL1        0.1238
      3 C          -0.5556    1.2520   -0.0104 C.ar    1  UNL1        0.0215
      4 C          -0.7570   -1.1529    0.0020 C.ar    1  UNL1        0.0215
      5 C           0.8371    1.1315   -0.0115 C.ar    1  UNL1        0.1238
      6 C           0.6333   -1.2679    0.0002 C.ar    1  UNL1        0.1238
      7 O           1.6328    2.2364   -0.0149 O.3     1  UNL1       -0.5065
      8 C           1.4298   -0.1276   -0.0070 C.ar    1  UNL1        0.0215
      9 O           1.2178   -2.4950    0.0069 O.3     1  UNL1       -0.5065
     10 H          -3.0101    1.1274   -0.0020 H       1  UNL1        0.2921
     11 H          -1.0167    2.2367   -0.0150 H       1  UNL1        0.0691
     12 H          -1.3796   -2.0448    0.0081 H       1  UNL1        0.0691
     13 H           1.0819    3.0321    0.0106 H       1  UNL1        0.2921
     14 H           2.5138   -0.2203   -0.0076 H       1  UNL1        0.0691
     15 H           0.5162   -3.1631    0.0139 H       1  UNL1        0.2921
@<TRIPOS>BOND
     1     1     2    1
     2     2     3   ar
     3     2     4   ar
     4     3     5   ar
     5     4     6   ar
     6     5     7    1
     7     5     8   ar
     8     6     9    1
     9     6     8   ar
    10     1    10    1
    11     3    11    1
    12     4    12    1
    13     7    13    1
    14     8    14    1
    15     9    15    1
@<TRIPOS>MOLECULE
40
 16 16 0 0 0
SMALL
GASTEIGER

@<TRIPOS>ATOM
      1 O           1.4224   -1.0416    0.7914 O.2     1  UNL1       -0.2450
      2 C           2.4549   -0.5290    0.4084 C.2     1  UNL1        0.3404
      3 O           3.0929   -1.0375   -0.6105 O.3     1  UNL1       -0.4770
      4 C           3.0996    0.6876    1.0433 C.ar    1  UNL1        0.1001
      5 C           2.5401    1.3074    2.1770 C.ar    1  UNL1        0.1308
      6 C           4.2799    1.2306    0.5092 C.ar    1  UNL1       -0.0442
      7 O           1.3994    0.8415    2.7590 O.3     1  UNL1       -0.5059
      8 C           3.1485    2.4242    2.7494 C.ar    1  UNL1       -0.0194
      9 C           4.8809    2.3490    1.0832 C.ar    1  UNL1       -0.0608
     10 C           4.3169    2.9460    2.2052 C.ar    1  UNL1       -0.0583
     11 H           3.8986   -0.5115   -0.7131 H       1  UNL1        0.2954
     12 H           4.7498    0.7968   -0.3692 H       1  UNL1        0.0627
     13 H           1.0987    0.0591    2.2477 H       1  UNL1        0.2922
     14 H           2.7088    2.8912    3.6280 H       1  UNL1        0.0654
     15 H           5.7929    2.7567    0.6534 H       1  UNL1        0.0618
     16 H           4.7862    3.8174    2.6553 H       1  UNL1        0.0619
@<TRIPOS>BOND
     1     1     2    2
     2     2     3    1
     3     2     4    1
     4     4     5   ar
     5     4     6   ar
     6     5     7    1
     7     5     8   ar
     8     6     9   ar
     9     8    10   ar
    10     9    10   ar
    11     3    11    1
    12     6    12    1
    13     7    13    1
    14     8    14    1
    15     9    15    1
    16    10    16    1
@<TRIPOS>MOLECULE
41
 19 19 0 0 0
SMALL
GASTEIGER

@<TRIPOS>ATOM
      1 O           1.4376   -0.1967    0.8040 O.2     1  UNL1       -0.2448
      2 C           2.3098   -0.0448   -0.0311 C.2     1  UNL1        0.3425
      3 O           2.6704   -1.0422   -0.8741 O.3     1  UNL1       -0.4644
      4 C           3.0375    1.2699   -0.2190 C.ar    1  UNL1        0.1002
      5 C           2.0987   -2.3657   -0.7022 C.3     1  UNL1        0.0820
      6 C           2.7131    2.4217    0.5278 C.ar    1  UNL1        0.1308
      7 C           4.0756    1.3583   -1.1588 C.ar    1  UNL1       -0.0442
      8 O           1.6985    2.4441    1.4446 O.3     1  UNL1       -0.5059
      9 C           3.4205    3.6079    0.3391 C.ar    1  UNL1       -0.0194
     10 C           4.7810    2.5505   -1.3398 C.ar    1  UNL1       -0.0608
     11 C           4.4536    3.6742   -0.5886 C.ar    1  UNL1       -0.0583
     12 H           2.1813   -2.9115   -1.6452 H       1  UNL1        0.0661
     13 H           1.0429   -2.2919   -0.4252 H       1  UNL1        0.0661
     14 H           2.6480   -2.8983    0.0791 H       1  UNL1        0.0661
     15 H           4.3571    0.4957   -1.7539 H       1  UNL1        0.0627
     16 H           1.2568    1.5697    1.4577 H       1  UNL1        0.2922
     17 H           3.1614    4.4916    0.9189 H       1  UNL1        0.0654
     18 H           5.5864    2.5981   -2.0660 H       1  UNL1        0.0618
     19 H           5.0006    4.6033   -0.7290 H       1  UNL1        0.0619
@<TRIPOS>BOND
     1     1     2    2
     2     2     3    1
     3     2     4    1
     4     3     5    1
     5     4     6   ar
     6     4     7   ar
     7     6     8    1
     8     6     9   ar
     9     7    10   ar
    10     9    11   ar
    11    10    11   ar
    12     5    12    1
    13     5    13    1
    14     5    14    1
    15     7    15    1
    16     8    16    1
    17     9    17    1
    18    10    18    1
    19    11    19    1
@<TRIPOS>MOLECULE
42
 38 39 0 0 0
SMALL
GASTEIGER

@<TRIPOS>ATOM
      1 O           0.3648    0.9815   -0.4115 O.3     1  UNL1       -0.3313
      2 C           1.2450    0.0070    0.2085 C.3     1  UNL1        0.2308
      3 C          -1.0237    0.9878    0.0250 C.3     1  UNL1        0.1140
      4 O           1.3787    0.3115    1.6268 O.3     1  UNL1       -0.4605
      5 C           0.6573   -1.4106   -0.0727 C.3     1  UNL1        0.1454
      6 C          -1.6406   -0.4126   -0.2481 C.3     1  UNL1        0.1120
      7 C          -1.7435    2.0972   -0.7739 C.3     1  UNL1        0.0731
      8 C           2.4124   -0.1363    2.4410 C.ar    1  UNL1        0.1293
      9 O           1.4145   -2.4722    0.5086 O.3     1  UNL1       -0.3829
     10 C          -0.8029   -1.5293    0.4037 C.3     1  UNL1        0.1152
     11 O          -2.9684   -0.5152    0.2638 O.3     1  UNL1       -0.3865
     12 O          -3.0889    2.2418   -0.3175 O.3     1  UNL1       -0.3924
     13 C           2.4087    0.1936    3.8049 C.ar    1  UNL1        0.0196
     14 C           3.4616   -0.9164    1.9328 C.ar    1  UNL1       -0.0195
     15 O          -0.8924   -1.4813    1.8421 O.3     1  UNL1       -0.3864
     16 C           3.3957   -0.3325    4.6443 C.ar    1  UNL1       -0.0529
     17 C           1.3762    1.1453    4.3970 C.3     1  UNL1        0.0727
     18 C           4.4298   -1.4456    2.7780 C.ar    1  UNL1       -0.0583
     19 C           4.3879   -1.1676    4.1393 C.ar    1  UNL1       -0.0612
     20 O           0.7410    0.5529    5.5308 O.3     1  UNL1       -0.3903
     21 H           2.2319    0.1302   -0.2622 H       1  UNL1        0.1084
     22 H          -1.0538    1.2231    1.0930 H       1  UNL1        0.0647
     23 H           0.6712   -1.5529   -1.1570 H       1  UNL1        0.0683
     24 H          -1.6698   -0.5763   -1.3295 H       1  UNL1        0.0647
     25 H          -1.7488    1.8393   -1.8365 H       1  UNL1        0.0584
     26 H          -1.2165    3.0471   -0.6485 H       1  UNL1        0.0584
     27 H           1.1127   -2.5811    1.4298 H       1  UNL1        0.2102
     28 H          -1.1996   -2.4920    0.0692 H       1  UNL1        0.0648
     29 H          -2.8763   -0.7354    1.2083 H       1  UNL1        0.2100
     30 H          -3.4574    1.3351   -0.2201 H       1  UNL1        0.2095
     31 H           3.5310   -1.1478    0.8736 H       1  UNL1        0.0654
     32 H          -0.3568   -0.7264    2.1710 H       1  UNL1        0.2100
     33 H           3.3893   -0.0954    5.7058 H       1  UNL1        0.0622
     34 H           0.6135    1.4169    3.6635 H       1  UNL1        0.0608
     35 H           1.8699    2.0651    4.7202 H       1  UNL1        0.0608
     36 H           5.2116   -2.0838    2.3739 H       1  UNL1        0.0619
     37 H           5.1375   -1.5897    4.8035 H       1  UNL1        0.0618
     38 H           0.6399   -0.3953    5.3434 H       1  UNL1        0.2098
@<TRIPOS>BOND
     1     1     2    1
     2     1     3    1
     3     2     4    1
     4     2     5    1
     5     3     6    1
     6     3     7    1
     7     4     8    1
     8     5     9    1
     9     5    10    1
    10     6    11    1
    11     7    12    1
    12     8    13   ar
    13     8    14   ar
    14    10    15    1
    15    13    16   ar
    16    13    17    1
    17    14    18   ar
    18    16    19   ar
    19    17    20    1
    20     6    10    1
    21    18    19   ar
    22     2    21    1
    23     3    22    1
    24     5    23    1
    25     6    24    1
    26     7    25    1
    27     7    26    1
    28     9    27    1
    29    10    28    1
    30    11    29    1
    31    12    30    1
    32    14    31    1
    33    15    32    1
    34    16    33    1
    35    17    34    1
    36    17    35    1
    37    18    36    1
    38    19    37    1
    39    20    38    1
@<TRIPOS>MOLECULE
43
 26 26 0 0 0
SMALL
GASTEIGER

@<TRIPOS>ATOM
      1 C           1.3082   -0.3829   -0.0182 C.2     1  UNL1       -0.0667
      2 C           0.9823    0.9105   -0.0293 C.2     1  UNL1       -0.0623
      3 C           2.7489   -0.8911   -0.0053 C.3     1  UNL1       -0.0253
      4 C           0.2628   -1.4893   -0.0210 C.3     1  UNL1       -0.0275
      5 C          -0.2741    1.3440   -0.0321 C.2     1  UNL1       -0.0628
      6 C           3.2835   -1.0611   -1.4418 C.3     1  UNL1       -0.0589
      7 C           3.7080   -0.0041    0.8224 C.3     1  UNL1       -0.0589
      8 C          -1.1982   -0.9844   -0.0286 C.3     1  UNL1       -0.0280
      9 C          -1.3241    0.5270   -0.0285 C.2     1  UNL1       -0.0723
     10 C          -2.7491    1.0427   -0.0244 C.3     1  UNL1       -0.0435
     11 H           1.7681    1.6604   -0.0366 H       1  UNL1        0.0617
     12 H           2.7633   -1.8749    0.4716 H       1  UNL1        0.0340
     13 H           0.4057   -2.1255    0.8560 H       1  UNL1        0.0313
     14 H           0.4150   -2.1260   -0.8959 H       1  UNL1        0.0313
     15 H          -0.4436    2.4184   -0.0359 H       1  UNL1        0.0617
     16 H           3.3007   -0.1029   -1.9661 H       1  UNL1        0.0235
     17 H           2.6520   -1.7505   -2.0070 H       1  UNL1        0.0235
     18 H           4.2979   -1.4665   -1.4288 H       1  UNL1        0.0235
     19 H           3.8616    0.9689    0.3508 H       1  UNL1        0.0235
     20 H           4.6839   -0.4863    0.9154 H       1  UNL1        0.0235
     21 H           3.3125    0.1540    1.8285 H       1  UNL1        0.0235
     22 H          -1.7149   -1.3905    0.8445 H       1  UNL1        0.0313
     23 H          -1.7057   -1.3883   -0.9083 H       1  UNL1        0.0313
     24 H          -2.7808    2.1347   -0.0219 H       1  UNL1        0.0274
     25 H          -3.2828    0.6898    0.8606 H       1  UNL1        0.0274
     26 H          -3.2869    0.6933   -0.9087 H       1  UNL1        0.0274
@<TRIPOS>BOND
     1     1     2    2
     2     1     3    1
     3     1     4    1
     4     2     5    1
     5     3     6    1
     6     3     7    1
     7     4     8    1
     8     5     9    2
     9     9    10    1
    10     8     9    1
    11     2    11    1
    12     3    12    1
    13     4    13    1
    14     4    14    1
    15     5    15    1
    16     6    16    1
    17     6    17    1
    18     6    18    1
    19     7    19    1
    20     7    20    1
    21     7    21    1
    22     8    22    1
    23     8    23    1
    24    10    24    1
    25    10    25    1
    26    10    26    1
@<TRIPOS>MOLECULE
44
 19 19 0 0 0
SMALL
GASTEIGER

@<TRIPOS>ATOM
      1 O           1.2921   -0.3473    0.7427 O.2     1  UNL1       -0.2957
      2 C           2.2519    0.0403    0.1070 C.2     1  UNL1        0.1503
      3 C           3.0260    1.2784    0.4124 C.ar    1  UNL1        0.0179
      4 C           2.6703    2.0891    1.4928 C.ar    1  UNL1       -0.0061
      5 C           4.1153    1.6259   -0.3878 C.ar    1  UNL1       -0.0479
      6 C           3.4040    3.2468    1.7737 C.ar    1  UNL1        0.1619
      7 C           4.8464    2.7796   -0.1130 C.ar    1  UNL1       -0.0159
      8 O           3.1039    4.0864    2.8367 O.3     1  UNL1       -0.4914
      9 C           4.4881    3.5855    0.9651 C.ar    1  UNL1        0.1585
     10 C           2.0122    3.8356    3.7528 C.3     1  UNL1        0.0790
     11 O           5.1912    4.7150    1.2480 O.3     1  UNL1       -0.5033
     12 H           2.5288   -0.6047   -0.7410 H       1  UNL1        0.1081
     13 H           1.8212    1.8080    2.1090 H       1  UNL1        0.0662
     14 H           4.3985    0.9980   -1.2292 H       1  UNL1        0.0626
     15 H           5.6944    3.0491   -0.7376 H       1  UNL1        0.0655
     16 H           1.9993    4.6206    4.5135 H       1  UNL1        0.0660
     17 H           2.1565    2.8647    4.2354 H       1  UNL1        0.0660
     18 H           1.0662    3.8446    3.2040 H       1  UNL1        0.0660
     19 H           4.7586    5.1090    2.0344 H       1  UNL1        0.2923
@<TRIPOS>BOND
     1     1     2    2
     2     2     3    1
     3     3     4   ar
     4     3     5   ar
     5     4     6   ar
     6     5     7   ar
     7     6     8    1
     8     6     9   ar
     9     8    10    1
    10     9    11    1
    11     7     9   ar
    12     2    12    1
    13     4    13    1
    14     5    14    1
    15     7    15    1
    16    10    16    1
    17    10    17    1
    18    10    18    1
    19    11    19    1
@<TRIPOS>MOLECULE
49
 20 20 0 0 0
SMALL
GASTEIGER

@<TRIPOS>ATOM
      1 O           1.7219   -3.0613    1.0547 O.2     1  UNL1       -0.2507
      2 C           2.5994   -2.2665    1.3180 C.2     1  UNL1        0.3091
      3 O           3.1495   -2.2105    2.5054 O.3     1  UNL1       -0.4804
      4 C           3.0627   -1.2074    0.3328 C.3     1  UNL1        0.0700
      5 C           4.5726   -1.0000    0.2996 C.ar    1  UNL1       -0.0331
      6 C           5.4355   -2.0796    0.0767 C.ar    1  UNL1       -0.0128
      7 C           5.1039    0.2859    0.4413 C.ar    1  UNL1       -0.0544
      8 C           6.8129   -1.8697   -0.0031 C.ar    1  UNL1        0.1585
      9 C           6.4792    0.4949    0.3570 C.ar    1  UNL1       -0.0163
     10 O           7.6730   -2.9094   -0.2192 O.3     1  UNL1       -0.5033
     11 C           7.3308   -0.5835    0.1288 C.ar    1  UNL1        0.1582
     12 O           8.6712   -0.4011    0.0183 O.3     1  UNL1       -0.5033
     13 H           3.8299   -1.5170    2.5131 H       1  UNL1        0.2951
     14 H           2.5573   -0.2672    0.5699 H       1  UNL1        0.0426
     15 H           2.7317   -1.4955   -0.6689 H       1  UNL1        0.0426
     16 H           5.0314   -3.0821   -0.0454 H       1  UNL1        0.0658
     17 H           4.4464    1.1373    0.6032 H       1  UNL1        0.0622
     18 H           6.8857    1.4986    0.4584 H       1  UNL1        0.0655
     19 H           7.1973   -3.7558   -0.1816 H       1  UNL1        0.2923
     20 H           9.0427   -1.2851   -0.1871 H       1  UNL1        0.2923
@<TRIPOS>BOND
     1     1     2    2
     2     2     3    1
     3     2     4    1
     4     4     5    1
     5     5     6   ar
     6     5     7   ar
     7     6     8   ar
     8     7     9   ar
     9     8    10    1
    10     8    11   ar
    11    11    12    1
    12     9    11   ar
    13     3    13    1
    14     4    14    1
    15     4    15    1
    16     6    16    1
    17     7    17    1
    18     9    18    1
    19    10    19    1
    20    12    20    1
@<TRIPOS>MOLECULE
50
 22 22 0 0 0
SMALL
GASTEIGER

@<TRIPOS>ATOM
      1 O           3.5439    0.3902    1.6928 O.2     1  UNL1       -0.2510
      2 C           4.3829   -0.4813    1.7948 C.2     1  UNL1        0.3050
      3 O           4.7723   -0.9336    2.9592 O.3     1  UNL1       -0.4806
      4 C           5.0630   -1.1577    0.6152 C.3     1  UNL1        0.0487
      5 C           4.5081   -0.6741   -0.7460 C.3     1  UNL1       -0.0176
      6 C           5.1874   -1.3329   -1.9401 C.ar    1  UNL1       -0.0466
      7 C           5.0438   -2.7047   -2.1660 C.ar    1  UNL1       -0.0551
      8 C           5.9357   -0.5685   -2.8395 C.ar    1  UNL1       -0.0551
      9 C           5.6475   -3.3058   -3.2693 C.ar    1  UNL1       -0.0199
     10 C           6.5351   -1.1681   -3.9463 C.ar    1  UNL1       -0.0199
     11 C           6.3941   -2.5379   -4.1618 C.ar    1  UNL1        0.1169
     12 O           6.9822   -3.1173   -5.2465 O.3     1  UNL1       -0.5068
     13 H           5.4404   -1.6261    2.8209 H       1  UNL1        0.2951
     14 H           4.9274   -2.2385    0.7020 H       1  UNL1        0.0381
     15 H           6.1369   -0.9607    0.6609 H       1  UNL1        0.0381
     16 H           4.6240    0.4112   -0.8106 H       1  UNL1        0.0318
     17 H           3.4355   -0.8783   -0.7916 H       1  UNL1        0.0318
     18 H           4.4545   -3.3126   -1.4834 H       1  UNL1        0.0621
     19 H           6.0485    0.5027   -2.6889 H       1  UNL1        0.0621
     20 H           5.5296   -4.3748   -3.4315 H       1  UNL1        0.0654
     21 H           7.1103   -0.5640   -4.6444 H       1  UNL1        0.0654
     22 H           6.7765   -4.0696   -5.2749 H       1  UNL1        0.2921
@<TRIPOS>BOND
     1     1     2    2
     2     2     3    1
     3     2     4    1
     4     4     5    1
     5     5     6    1
     6     6     7   ar
     7     6     8   ar
     8     7     9   ar
     9     8    10   ar
    10     9    11   ar
    11    11    12    1
    12    10    11   ar
    13     3    13    1
    14     4    14    1
    15     4    15    1
    16     5    16    1
    17     5    17    1
    18     7    18    1
    19     8    19    1
    20     9    20    1
    21    10    21    1
    22    12    22    1
@<TRIPOS>MOLECULE
51
 19 19 0 0 0
SMALL
GASTEIGER

@<TRIPOS>ATOM
      1 O           1.2521   -0.4027   -0.1551 O.2     1  UNL1       -0.2507
      2 C           2.3125    0.1017   -0.4579 C.2     1  UNL1        0.3091
      3 O           2.8007    0.0183   -1.6702 O.3     1  UNL1       -0.4804
      4 C           3.1121    0.9667    0.5018 C.3     1  UNL1        0.0700
      5 C           4.6226    0.7946    0.3833 C.ar    1  UNL1       -0.0333
      6 C           5.2021   -0.4747    0.4704 C.ar    1  UNL1       -0.0165
      7 C           5.4444    1.9127    0.2164 C.ar    1  UNL1       -0.0578
      8 C           6.5859   -0.6233    0.3762 C.ar    1  UNL1        0.1171
      9 C           6.8274    1.7632    0.1280 C.ar    1  UNL1       -0.0580
     10 O           7.1523   -1.8595    0.4512 O.3     1  UNL1       -0.5068
     11 C           7.3979    0.4957    0.2060 C.ar    1  UNL1       -0.0202
     12 H           3.6624    0.4699   -1.6916 H       1  UNL1        0.2951
     13 H           2.8131    0.7223    1.5250 H       1  UNL1        0.0426
     14 H           2.8387    2.0111    0.3342 H       1  UNL1        0.0426
     15 H           4.5715   -1.3506    0.6107 H       1  UNL1        0.0657
     16 H           5.0120    2.9094    0.1606 H       1  UNL1        0.0620
     17 H           7.4621    2.6369    0.0013 H       1  UNL1        0.0619
     18 H           6.4608   -2.5395    0.5370 H       1  UNL1        0.2921
     19 H           8.4778    0.3811    0.1362 H       1  UNL1        0.0654
@<TRIPOS>BOND
     1     1     2    2
     2     2     3    1
     3     2     4    1
     4     4     5    1
     5     5     6   ar
     6     5     7   ar
     7     6     8   ar
     8     7     9   ar
     9     8    10    1
    10     8    11   ar
    11     9    11   ar
    12     3    12    1
    13     4    13    1
    14     4    14    1
    15     6    15    1
    16     7    16    1
    17     9    17    1
    18    10    18    1
    19    11    19    1
@<TRIPOS>MOLECULE
52
 22 23 0 0 0
SMALL
GASTEIGER

@<TRIPOS>ATOM
      1 O           1.0147   -0.2136   -0.2054 O.2     1  UNL1       -0.2452
      2 C           2.2120   -0.0959   -0.0486 C.ar    1  UNL1        0.3372
      3 O           3.0262   -1.1794    0.0079 O.2     1  UNL1       -0.4220
      4 C           2.8958    1.2006    0.0818 C.ar    1  UNL1        0.0236
      5 C           4.3850   -1.1326    0.2509 C.ar    1  UNL1        0.1428
      6 C           4.3219    1.3026    0.2178 C.ar    1  UNL1       -0.0442
      7 C           5.0649    0.1310    0.2759 C.ar    1  UNL1        0.0213
      8 C           5.1484   -2.3472    0.2159 C.ar    1  UNL1        0.0267
      9 C           6.4551    0.1470    0.3566 C.ar    1  UNL1       -0.0059
     10 C           6.5411   -2.2958    0.2881 C.ar    1  UNL1        0.1648
     11 C           7.1909   -1.0431    0.3694 C.ar    1  UNL1        0.1592
     12 O           7.1822   -3.5306    0.2704 O.3     1  UNL1       -0.4913
     13 O           8.5504   -0.9280    0.4488 O.3     1  UNL1       -0.5033
     14 C           8.6116   -3.7545    0.2495 C.3     1  UNL1        0.0790
     15 H           2.2516    2.0726    0.0373 H       1  UNL1        0.0689
     16 H           4.8098    2.2737    0.2399 H       1  UNL1        0.0627
     17 H           4.6399   -3.3059    0.1494 H       1  UNL1        0.0692
     18 H           6.9762    1.1007    0.3976 H       1  UNL1        0.0662
     19 H           8.8054    0.0100    0.4870 H       1  UNL1        0.2923
     20 H           8.7989   -4.8299    0.1977 H       1  UNL1        0.0660
     21 H           9.0585   -3.3533    1.1632 H       1  UNL1        0.0660
     22 H           9.0455   -3.2676   -0.6281 H       1  UNL1        0.0660
@<TRIPOS>BOND
     1     1     2    2
     2     2     3   ar
     3     2     4   ar
     4     3     5   ar
     5     4     6   ar
     6     5     7   ar
     7     5     8   ar
     8     7     9   ar
     9     8    10   ar
    10     9    11   ar
    11    10    12    1
    12    11    13    1
    13    12    14    1
    14     6     7   ar
    15    10    11   ar
    16     4    15    1
    17     6    16    1
    18     8    17    1
    19     9    18    1
    20    13    19    1
    21    14    20    1
    22    14    21    1
    23    14    22    1
@<TRIPOS>MOLECULE
54
 15 15 0 0 0
SMALL
GASTEIGER

@<TRIPOS>ATOM
      1 O           2.6312   -1.1329    0.3727 O.2     1  UNL1       -0.2704
      2 C           2.2241   -0.1221   -0.1627 C.2     1  UNL1        0.2430
      3 N           1.0537    0.4138    0.2312 N.am    1  UNL1       -0.3253
      4 C           2.9663    0.5756   -1.2692 C.ar    1  UNL1        0.0545
      5 C           4.1801    0.0494   -1.7258 C.ar    1  UNL1        0.0396
      6 C           2.4918    1.7458   -1.8747 C.ar    1  UNL1       -0.0467
      7 N           4.9099    0.6085   -2.7189 N.ar    1  UNL1       -0.2625
      8 C           3.2357    2.3310   -2.8969 C.ar    1  UNL1       -0.0429
      9 C           4.4326    1.7357   -3.2907 C.ar    1  UNL1        0.0276
     10 H           0.5244   -0.0305    0.9659 H       1  UNL1        0.1453
     11 H           0.6999    1.2469   -0.2118 H       1  UNL1        0.1453
     12 H           4.5977   -0.8581   -1.2926 H       1  UNL1        0.0837
     13 H           1.5587    2.2074   -1.5645 H       1  UNL1        0.0626
     14 H           2.8877    3.2397   -3.3819 H       1  UNL1        0.0633
     15 H           5.0408    2.1618   -4.0866 H       1  UNL1        0.0829
@<TRIPOS>BOND
     1     1     2    2
     2     2     3   am
     3     2     4    1
     4     4     5   ar
     5     4     6   ar
     6     5     7   ar
     7     6     8   ar
     8     7     9   ar
     9     8     9   ar
    10     3    10    1
    11     3    11    1
    12     5    12    1
    13     6    13    1
    14     8    14    1
    15     9    15    1
@<TRIPOS>MOLECULE
55
 14 14 0 0 0
SMALL
GASTEIGER

@<TRIPOS>ATOM
      1 O           1.3104   -0.6419    0.1218 O.2     1  UNL1       -0.2451
      2 C           2.3810   -0.0889   -0.0276 C.2     1  UNL1        0.3383
      3 O           2.9194    0.0215   -1.2147 O.3     1  UNL1       -0.4771
      4 C           3.1707    0.4968    1.1116 C.ar    1  UNL1        0.0769
      5 C           4.3983    1.1465    0.9186 C.ar    1  UNL1        0.0415
      6 C           2.6816    0.4023    2.4175 C.ar    1  UNL1       -0.0449
      7 N           5.1251    1.6782    1.9283 N.ar    1  UNL1       -0.2624
      8 C           3.4222    0.9442    3.4652 C.ar    1  UNL1       -0.0428
      9 C           4.6339    1.5714    3.1828 C.ar    1  UNL1        0.0276
     10 H           3.7742    0.4699   -1.1138 H       1  UNL1        0.2954
     11 H           4.8375    1.2635   -0.0690 H       1  UNL1        0.0838
     12 H           1.7343   -0.0907    2.6222 H       1  UNL1        0.0627
     13 H           3.0607    0.8785    4.4887 H       1  UNL1        0.0633
     14 H           5.2424    2.0072    3.9733 H       1  UNL1        0.0829
@<TRIPOS>BOND
     1     1     2    2
     2     2     3    1
     3     2     4    1
     4     4     5   ar
     5     4     6   ar
     6     5     7   ar
     7     6     8   ar
     8     7     9   ar
     9     8     9   ar
    10     3    10    1
    11     5    11    1
    12     6    12    1
    13     8    13    1
    14     9    14    1
@<TRIPOS>MOLECULE
56
 73 77 0 0 0
SMALL
GASTEIGER

@<TRIPOS>ATOM
      1 O          -3.5995    0.9591    1.0655 O.2     1  UNL1       -0.2830
      2 C          -2.9017    0.9799    0.0691 C.ar    1  UNL1        0.2382
      3 C          -2.8018   -0.1115   -0.9603 C.ar    1  UNL1        0.2138
      4 C          -2.0997    2.1586   -0.2894 C.ar    1  UNL1        0.1092
      5 O          -3.7085   -1.1697   -0.9702 O.3     1  UNL1       -0.4532
      6 C          -2.0982   -0.0891   -1.8617 C.ar    1  UNL1        0.1810
      7 C          -1.3293    2.0132   -1.4127 C.ar    1  UNL1        0.1465
      8 C          -2.1152    3.4491    0.3645 C.ar    1  UNL1        0.1348
      9 C          -4.9260   -1.2131   -0.1656 C.3     1  UNL1        0.2311
     10 O          -1.4337    0.8001   -2.0718 O.2     1  UNL1       -0.4507
     11 C          -1.5532   -1.0952   -2.8819 C.ar    1  UNL1        0.0247
     12 C          -0.4464    3.0789   -1.8355 C.ar    1  UNL1        0.0231
     13 O          -3.0252    3.6949    1.3452 O.3     1  UNL1       -0.5058
     14 C          -1.3032    4.4878   -0.0765 C.ar    1  UNL1        0.0223
     15 O          -4.7178   -1.9489    1.0709 O.3     1  UNL1       -0.3313
     16 C          -6.0665   -1.8701   -0.9578 C.3     1  UNL1        0.1454
     17 C          -0.9123   -0.6978   -4.0855 C.ar    1  UNL1       -0.0057
     18 C          -1.6733   -2.4857   -2.6513 C.ar    1  UNL1       -0.0473
     19 C          -0.4510    4.3026   -1.1590 C.ar    1  UNL1        0.1239
     20 C          -4.3666   -3.3562    0.9450 C.3     1  UNL1        0.1144
     21 O          -6.2345   -1.1905   -2.2065 O.3     1  UNL1       -0.3829
     22 C          -5.7783   -3.3646   -1.1911 C.3     1  UNL1        0.1152
     23 C          -0.3912   -1.6425   -4.9683 C.ar    1  UNL1        0.1589
     24 C          -1.1655   -3.4204   -3.5566 C.ar    1  UNL1       -0.0159
     25 O           0.3482    5.3447   -1.5355 O.3     1  UNL1       -0.5065
     26 C          -5.4634   -4.1071    0.1370 C.3     1  UNL1        0.1120
     27 C          -4.1728   -3.9297    2.3719 C.3     1  UNL1        0.0796
     28 O          -6.9260   -3.9300   -1.8241 O.3     1  UNL1       -0.3864
     29 O           0.2819   -1.2629   -6.0906 O.3     1  UNL1       -0.5033
     30 C          -0.5099   -2.9965   -4.7065 C.ar    1  UNL1        0.1583
     31 O          -6.6510   -4.2904    0.9264 O.3     1  UNL1       -0.3865
     32 O          -3.7581   -5.3209    2.3152 O.3     1  UNL1       -0.3461
     33 O           0.0720   -3.8689   -5.5769 O.3     1  UNL1       -0.5033
     34 C          -3.7085   -5.9783    3.6136 C.3     1  UNL1        0.1879
     35 O          -2.5966   -5.4931    4.4150 O.3     1  UNL1       -0.3431
     36 C          -3.5599   -7.5092    3.4378 C.3     1  UNL1        0.1341
     37 C          -1.2669   -5.7318    3.8772 C.3     1  UNL1        0.0873
     38 O          -4.6274   -8.0094    2.6268 O.3     1  UNL1       -0.3841
     39 C          -2.1828   -7.8494    2.8163 C.3     1  UNL1        0.1140
     40 C          -1.0429   -7.2540    3.6767 C.3     1  UNL1        0.1095
     41 C          -0.2330   -5.1090    4.8388 C.3     1  UNL1       -0.0361
     42 O          -2.0043   -9.2672    2.7268 O.3     1  UNL1       -0.3864
     43 O          -0.9721   -7.9345    4.9409 O.3     1  UNL1       -0.3866
     44 H          -5.2520   -0.1928    0.0777 H       1  UNL1        0.1084
     45 H           0.2202    2.9150   -2.6786 H       1  UNL1        0.0691
     46 H          -3.5769    2.8905    1.4321 H       1  UNL1        0.2922
     47 H          -1.3458    5.4553    0.4198 H       1  UNL1        0.0691
     48 H          -6.9889   -1.7692   -0.3785 H       1  UNL1        0.0683
     49 H          -0.8027    0.3537   -4.3411 H       1  UNL1        0.0662
     50 H          -2.1458   -2.8640   -1.7503 H       1  UNL1        0.0626
     51 H          -3.4165   -3.4214    0.4074 H       1  UNL1        0.0647
     52 H          -5.4834   -1.4194   -2.7827 H       1  UNL1        0.2102
     53 H          -4.9151   -3.4627   -1.8561 H       1  UNL1        0.0648
     54 H          -1.2616   -4.4834   -3.3497 H       1  UNL1        0.0655
     55 H           0.9531    5.1023   -2.2534 H       1  UNL1        0.2921
     56 H          -5.0739   -5.0993   -0.1091 H       1  UNL1        0.0647
     57 H          -5.1123   -3.8604    2.9282 H       1  UNL1        0.0587
     58 H          -3.4096   -3.3535    2.9021 H       1  UNL1        0.0587
     59 H          -6.9144   -4.8777   -1.6448 H       1  UNL1        0.2100
     60 H           0.6056   -0.3639   -5.9646 H       1  UNL1        0.2923
     61 H          -7.3719   -3.7437    0.5715 H       1  UNL1        0.2100
     62 H           0.5471   -3.3119   -6.2425 H       1  UNL1        0.2923
     63 H          -4.6430   -5.7525    4.1514 H       1  UNL1        0.0937
     64 H          -3.6299   -7.9803    4.4222 H       1  UNL1        0.0671
     65 H          -1.1904   -5.2295    2.9085 H       1  UNL1        0.0621
     66 H          -4.6853   -7.4639    1.8236 H       1  UNL1        0.2101
     67 H          -2.1318   -7.4222    1.8108 H       1  UNL1        0.0648
     68 H          -0.0958   -7.4061    3.1503 H       1  UNL1        0.0646
     69 H          -0.3237   -5.5290    5.8432 H       1  UNL1        0.0255
     70 H          -0.3841   -4.0297    4.9097 H       1  UNL1        0.0255
     71 H           0.7824   -5.2903    4.4793 H       1  UNL1        0.0255
     72 H          -1.7136   -9.5791    3.6058 H       1  UNL1        0.2100
     73 H          -1.6178   -7.5333    5.5521 H       1  UNL1        0.2100
@<TRIPOS>BOND
     1     1     2    2
     2     2     3   ar
     3     2     4   ar
     4     3     5    1
     5     3     6   ar
     6     4     7   ar
     7     4     8   ar
     8     5     9    1
     9     6    10   ar
    10     6    11    1
    11     7    12   ar
    12     8    13    1
    13     8    14   ar
    14     9    15    1
    15     9    16    1
    16    11    17   ar
    17    11    18   ar
    18    12    19   ar
    19    15    20    1
    20    16    21    1
    21    16    22    1
    22    17    23   ar
    23    18    24   ar
    24    19    25    1
    25    20    26    1
    26    20    27    1
    27    22    28    1
    28    23    29    1
    29    23    30   ar
    30    26    31    1
    31    27    32    1
    32    30    33    1
    33    32    34    1
    34    34    35    1
    35    34    36    1
    36    35    37    1
    37    36    38    1
    38    36    39    1
    39    37    40    1
    40    37    41    1
    41    39    42    1
    42    40    43    1
    43     7    10   ar
    44    14    19   ar
    45    22    26    1
    46    24    30   ar
    47    39    40    1
    48     9    44    1
    49    12    45    1
    50    13    46    1
    51    14    47    1
    52    16    48    1
    53    17    49    1
    54    18    50    1
    55    20    51    1
    56    21    52    1
    57    22    53    1
    58    24    54    1
    59    25    55    1
    60    26    56    1
    61    27    57    1
    62    27    58    1
    63    28    59    1
    64    29    60    1
    65    31    61    1
    66    33    62    1
    67    34    63    1
    68    36    64    1
    69    37    65    1
    70    38    66    1
    71    39    67    1
    72    40    68    1
    73    41    69    1
    74    41    70    1
    75    41    71    1
    76    42    72    1
    77    43    73    1
@<TRIPOS>MOLECULE
58
 24 24 0 0 0
SMALL
GASTEIGER

@<TRIPOS>ATOM
      1 O           2.2391   -0.0452    0.1297 O.3     1  UNL1       -0.4915
      2 C           0.8509   -0.1283    0.0659 C.ar    1  UNL1        0.1615
      3 C           3.1954   -1.1179   -0.0385 C.3     1  UNL1        0.0790
      4 C           0.1133   -1.3246    0.0130 C.ar    1  UNL1        0.1585
      5 C           0.1679    1.0886    0.0683 C.ar    1  UNL1       -0.0128
      6 O           0.7109   -2.5471    0.0453 O.3     1  UNL1       -0.5033
      7 C          -1.2789   -1.2795   -0.0547 C.ar    1  UNL1       -0.0163
      8 C          -1.2263    1.1337    0.0160 C.ar    1  UNL1       -0.0400
      9 C          -1.9469   -0.0582   -0.0545 C.ar    1  UNL1       -0.0546
     10 C          -1.9535    2.4680    0.0432 C.3     1  UNL1       -0.0096
     11 C          -2.2248    2.9888   -1.3473 C.2     1  UNL1       -0.0868
     12 C          -3.4465    3.2985   -1.8049 C.2     1  UNL1       -0.1023
     13 H           4.2005   -0.6879   -0.0539 H       1  UNL1        0.0660
     14 H           3.0102   -1.6337   -0.9854 H       1  UNL1        0.0660
     15 H           3.1198   -1.8128    0.8024 H       1  UNL1        0.0660
     16 H           0.7354    2.0150    0.1153 H       1  UNL1        0.0658
     17 H           1.6623   -2.3996    0.1782 H       1  UNL1        0.2923
     18 H          -1.8492   -2.2040   -0.0984 H       1  UNL1        0.0655
     19 H          -3.0332   -0.0393   -0.1015 H       1  UNL1        0.0622
     20 H          -1.3558    3.1971    0.5957 H       1  UNL1        0.0355
     21 H          -2.8875    2.3573    0.6002 H       1  UNL1        0.0355
     22 H          -1.3435    3.1099   -1.9767 H       1  UNL1        0.0570
     23 H          -4.3330    3.1855   -1.1852 H       1  UNL1        0.0532
     24 H          -3.5888    3.6761   -2.8144 H       1  UNL1        0.0532
@<TRIPOS>BOND
     1     1     2    1
     2     1     3    1
     3     2     4   ar
     4     2     5   ar
     5     4     6    1
     6     4     7   ar
     7     5     8   ar
     8     7     9   ar
     9     8    10    1
    10    10    11    1
    11    11    12    2
    12     8     9   ar
    13     3    13    1
    14     3    14    1
    15     3    15    1
    16     5    16    1
    17     6    17    1
    18     7    18    1
    19     9    19    1
    20    10    20    1
    21    10    21    1
    22    11    22    1
    23    12    23    1
    24    12    24    1
@<TRIPOS>MOLECULE
61
 46 48 0 0 0
SMALL
GASTEIGER

@<TRIPOS>ATOM
      1 O           1.1041    0.2223    0.4429 O.3     1  UNL1       -0.4914
      2 C           0.3509   -0.4691    1.3835 C.ar    1  UNL1        0.1621
      3 C           1.0003    0.0729   -0.9916 C.3     1  UNL1        0.0790
      4 C           0.7736   -0.5092    2.7269 C.ar    1  UNL1        0.1621
      5 C          -0.8139   -1.1563    1.0079 C.ar    1  UNL1       -0.0069
      6 O           1.9093    0.1122    3.2361 O.3     1  UNL1       -0.4914
      7 C           0.0323   -1.2323    3.6555 C.ar    1  UNL1       -0.0085
      8 C          -1.5576   -1.8891    1.9448 C.ar    1  UNL1        0.0074
      9 C           2.8092    0.9739    2.5013 C.3     1  UNL1        0.0790
     10 C          -1.1221   -1.9108    3.2761 C.ar    1  UNL1       -0.0110
     11 C          -2.7138   -2.6219    1.6136 C.ar    1  UNL1        0.0534
     12 C          -1.8453   -2.6315    4.2236 C.ar    1  UNL1       -0.0357
     13 N          -3.4228   -3.3075    2.5443 N.ar    1  UNL1       -0.2589
     14 C          -3.2061   -2.8485    0.1837 C.3     1  UNL1        0.0155
     15 C          -2.9940   -3.3032    3.8230 C.ar    1  UNL1        0.0285
     16 C          -2.5078   -4.0557   -0.4409 C.ar    1  UNL1       -0.0379
     17 C          -2.6855   -5.3181    0.1228 C.ar    1  UNL1       -0.0128
     18 C          -1.6640   -3.9089   -1.5389 C.ar    1  UNL1       -0.0545
     19 C          -1.9859   -6.4334   -0.3582 C.ar    1  UNL1        0.1618
     20 C          -0.9821   -5.0137   -2.0426 C.ar    1  UNL1       -0.0160
     21 O          -2.1408   -7.6738    0.2534 O.3     1  UNL1       -0.4914
     22 C          -1.1106   -6.2719   -1.4481 C.ar    1  UNL1        0.1615
     23 C          -2.9421   -7.9047    1.4351 C.3     1  UNL1        0.0790
     24 O          -0.3336   -7.2805   -2.0086 O.3     1  UNL1       -0.4915
     25 C          -0.0451   -8.5475   -1.3739 C.3     1  UNL1        0.0790
     26 H           0.2865    0.8012   -1.3861 H       1  UNL1        0.0660
     27 H           0.6927   -0.9437   -1.2474 H       1  UNL1        0.0660
     28 H           1.9870    0.2626   -1.4232 H       1  UNL1        0.0660
     29 H          -1.1435   -1.1090   -0.0227 H       1  UNL1        0.0662
     30 H           0.3691   -1.2703    4.6888 H       1  UNL1        0.0661
     31 H           3.5896    1.3295    3.1783 H       1  UNL1        0.0660
     32 H           2.2531    1.8275    2.1041 H       1  UNL1        0.0660
     33 H           3.2682    0.4108    1.6842 H       1  UNL1        0.0660
     34 H          -1.5220   -2.6737    5.2613 H       1  UNL1        0.0639
     35 H          -3.0711   -1.9567   -0.4288 H       1  UNL1        0.0377
     36 H          -4.2840   -3.0333    0.1922 H       1  UNL1        0.0377
     37 H          -3.5881   -3.8793    4.5294 H       1  UNL1        0.0830
     38 H          -3.3651   -5.4245    0.9598 H       1  UNL1        0.0658
     39 H          -1.5235   -2.9355   -1.9996 H       1  UNL1        0.0622
     40 H          -0.3177   -4.8896   -2.8936 H       1  UNL1        0.0655
     41 H          -2.8098   -8.9413    1.7559 H       1  UNL1        0.0660
     42 H          -3.9970   -7.7287    1.2021 H       1  UNL1        0.0660
     43 H          -2.6179   -7.2347    2.2365 H       1  UNL1        0.0660
     44 H           0.7305   -9.0621   -1.9444 H       1  UNL1        0.0660
     45 H          -0.9500   -9.1620   -1.3557 H       1  UNL1        0.0660
     46 H           0.3074   -8.3731   -0.3525 H       1  UNL1        0.0660
@<TRIPOS>BOND
     1     1     2    1
     2     1     3    1
     3     2     4   ar
     4     2     5   ar
     5     4     6    1
     6     4     7   ar
     7     5     8   ar
     8     6     9    1
     9     7    10   ar
    10     8    11   ar
    11    10    12   ar
    12    11    13   ar
    13    11    14    1
    14    12    15   ar
    15    14    16    1
    16    16    17   ar
    17    16    18   ar
    18    17    19   ar
    19    18    20   ar
    20    19    21    1
    21    19    22   ar
    22    21    23    1
    23    22    24    1
    24    24    25    1
    25     8    10   ar
    26    13    15   ar
    27    20    22   ar
    28     3    26    1
    29     3    27    1
    30     3    28    1
    31     5    29    1
    32     7    30    1
    33     9    31    1
    34     9    32    1
    35     9    33    1
    36    12    34    1
    37    14    35    1
    38    14    36    1
    39    15    37    1
    40    17    38    1
    41    18    39    1
    42    20    40    1
    43    23    41    1
    44    23    42    1
    45    23    43    1
    46    25    44    1
    47    25    45    1
    48    25    46    1
@<TRIPOS>MOLECULE
64
 29 31 0 0 0
SMALL
GASTEIGER

@<TRIPOS>ATOM
      1 O           0.0110   -2.3482    0.0210 O.2     1  UNL1       -0.2864
      2 C           0.0101   -1.1306    0.0114 C.2     1  UNL1        0.2015
      3 C           1.3067   -0.3632   -0.0749 C.ar    1  UNL1        0.0746
      4 C          -1.2915   -0.3702    0.0639 C.ar    1  UNL1        0.0745
      5 C           2.5470   -1.0237   -0.1727 C.ar    1  UNL1        0.1291
      6 C           1.2910    1.0355   -0.0662 C.ar    1  UNL1        0.0374
      7 C          -2.5301   -1.0410    0.1042 C.ar    1  UNL1        0.1283
      8 C          -1.2826    1.0314    0.0646 C.ar    1  UNL1        0.0366
      9 O           2.6227   -2.3923   -0.1480 O.3     1  UNL1       -0.5060
     10 C           3.7365   -0.2936   -0.2989 C.ar    1  UNL1       -0.0055
     11 C           0.0033    1.7955    0.0161 C.2     1  UNL1        0.1948
     12 C           2.4908    1.7493   -0.1453 C.ar    1  UNL1       -0.0360
     13 O          -2.6160   -2.4038    0.1028 O.3     1  UNL1       -0.5060
     14 C          -3.7241   -0.3241    0.1357 C.ar    1  UNL1       -0.0194
     15 C          -2.4902    1.7376    0.1034 C.ar    1  UNL1       -0.0500
     16 C           3.7213    1.1059   -0.2838 C.ar    1  UNL1        0.0630
     17 O           0.0006    3.0117    0.0215 O.2     1  UNL1       -0.2866
     18 C          -3.7057    1.0643    0.1354 C.ar    1  UNL1       -0.0576
     19 C           4.9648    1.9604   -0.3852 C.2     1  UNL1        0.3369
     20 O           4.9372    3.1658   -0.2445 O.2     1  UNL1       -0.2451
     21 O           6.1013    1.3695   -0.6571 O.3     1  UNL1       -0.4771
     22 H           1.7065   -2.7737   -0.0220 H       1  UNL1        0.2922
     23 H           4.6793   -0.8292   -0.3785 H       1  UNL1        0.0662
     24 H           2.4646    2.8365   -0.1258 H       1  UNL1        0.0633
     25 H          -1.6979   -2.7695    0.0733 H       1  UNL1        0.2922
     26 H          -4.6754   -0.8510    0.1587 H       1  UNL1        0.0654
     27 H          -2.4943    2.8255    0.1018 H       1  UNL1        0.0625
     28 H          -4.6388    1.6221    0.1576 H       1  UNL1        0.0619
     29 H           5.9436    0.4805   -0.9993 H       1  UNL1        0.2954
@<TRIPOS>BOND
     1     1     2    2
     2     2     3    1
     3     2     4    1
     4     3     5   ar
     5     3     6   ar
     6     4     7   ar
     7     4     8   ar
     8     5     9    1
     9     5    10   ar
    10     6    11    1
    11     6    12   ar
    12     7    13    1
    13     7    14   ar
    14     8    15   ar
    15    10    16   ar
    16    11    17    2
    17    14    18   ar
    18    16    19    1
    19    19    20    2
    20    19    21    1
    21     8    11    1
    22    12    16   ar
    23    15    18   ar
    24     9    22    1
    25    10    23    1
    26    12    24    1
    27    13    25    1
    28    14    26    1
    29    15    27    1
    30    18    28    1
    31    21    29    1
@<TRIPOS>MOLECULE
65
 52 55 0 0 0
SMALL
GASTEIGER

@<TRIPOS>ATOM
      1 O           0.7524   -0.0267    0.3361 O.2     1  UNL1       -0.2864
      2 C           1.9495    0.0097    0.1162 C.2     1  UNL1        0.2007
      3 C           2.6592    1.3004   -0.1462 C.ar    1  UNL1        0.0676
      4 C           2.7674   -1.2356   -0.0321 C.ar    1  UNL1        0.0676
      5 C           1.9688    2.5212   -0.1698 C.ar    1  UNL1        0.1283
      6 C           4.0368    1.2780   -0.3854 C.ar    1  UNL1       -0.0227
      7 C           2.1585   -2.5012   -0.0331 C.ar    1  UNL1        0.1279
      8 C           4.1582   -1.1287   -0.1833 C.ar    1  UNL1       -0.0231
      9 O           0.6299    2.5703    0.0599 O.3     1  UNL1       -0.5060
     10 C           2.6604    3.7145   -0.3418 C.ar    1  UNL1       -0.0141
     11 C           4.6669    2.4647   -0.7693 C.ar    1  UNL1       -0.0516
     12 C           4.8347    0.1376    0.0523 C.3     1  UNL1        0.0395
     13 O           0.8034   -2.6236    0.0673 O.3     1  UNL1       -0.5060
     14 C           2.9310   -3.6528   -0.1567 C.ar    1  UNL1       -0.0194
     15 C           4.9185   -2.2992   -0.3207 C.ar    1  UNL1       -0.0570
     16 C           4.0212    3.6921   -0.6249 C.ar    1  UNL1       -0.0184
     17 C           5.7795    0.1972    1.2563 C.3     1  UNL1        0.0983
     18 C           4.3101   -3.5511   -0.3020 C.ar    1  UNL1       -0.0580
     19 C           4.8456    4.9747   -0.5719 C.3     1  UNL1        0.0694
     20 O           5.0327    0.4093    2.4861 O.3     1  UNL1       -0.3649
     21 C           7.0087    1.1470    1.2224 C.3     1  UNL1        0.1104
     22 O           4.1518    6.0733   -1.1316 O.3     1  UNL1       -0.3904
     23 C           4.6265    1.7655    2.8089 C.3     1  UNL1        0.1104
     24 O           7.6089    1.1134   -0.0682 O.3     1  UNL1       -0.3865
     25 C           6.7112    2.6156    1.6338 C.3     1  UNL1        0.1118
     26 C           5.8704    2.6945    2.9208 C.3     1  UNL1        0.1117
     27 C           3.7430    1.7114    4.0763 C.3     1  UNL1        0.0729
     28 O           7.9348    3.3181    1.8198 O.3     1  UNL1       -0.3865
     29 O           6.7181    2.3433    4.0114 O.3     1  UNL1       -0.3865
     30 O           4.4107    1.0460    5.1538 O.3     1  UNL1       -0.3924
     31 H           0.3365    1.6265    0.1491 H       1  UNL1        0.2922
     32 H           2.1326    4.6608   -0.2332 H       1  UNL1        0.0658
     33 H           5.7240    2.4572   -1.0152 H       1  UNL1        0.0624
     34 H           5.3403    0.0516   -0.9226 H       1  UNL1        0.0424
     35 H           0.4344   -1.6998    0.1243 H       1  UNL1        0.2922
     36 H           2.4577   -4.6319   -0.1370 H       1  UNL1        0.0654
     37 H           6.0025   -2.2434   -0.3963 H       1  UNL1        0.0621
     38 H           6.2153   -0.7981    1.3735 H       1  UNL1        0.0632
     39 H           4.9144   -4.4518   -0.3796 H       1  UNL1        0.0619
     40 H           5.7997    4.8467   -1.0934 H       1  UNL1        0.0607
     41 H           5.0678    5.2136    0.4741 H       1  UNL1        0.0607
     42 H           7.7346    0.7552    1.9416 H       1  UNL1        0.0646
     43 H           3.9382    5.8224   -2.0394 H       1  UNL1        0.2098
     44 H           3.9966    2.1477    2.0072 H       1  UNL1        0.0646
     45 H           8.0813    1.9554   -0.1670 H       1  UNL1        0.2100
     46 H           6.1837    3.1532    0.8667 H       1  UNL1        0.0647
     47 H           5.5274    3.7236    3.0627 H       1  UNL1        0.0647
     48 H           2.8281    1.1601    3.8406 H       1  UNL1        0.0584
     49 H           3.4651    2.7242    4.3803 H       1  UNL1        0.0584
     50 H           8.0192    3.4112    2.7866 H       1  UNL1        0.2100
     51 H           6.2235    1.6935    4.5308 H       1  UNL1        0.2100
     52 H           4.5940    0.1270    4.8806 H       1  UNL1        0.2095
@<TRIPOS>BOND
     1     1     2    2
     2     2     3    1
     3     2     4    1
     4     3     5   ar
     5     3     6   ar
     6     4     7   ar
     7     4     8   ar
     8     5     9    1
     9     5    10   ar
    10     6    11   ar
    11     6    12    1
    12     7    13    1
    13     7    14   ar
    14     8    15   ar
    15    10    16   ar
    16    12    17    1
    17    14    18   ar
    18    16    19    1
    19    17    20    1
    20    17    21    1
    21    19    22    1
    22    20    23    1
    23    21    24    1
    24    21    25    1
    25    23    26    1
    26    23    27    1
    27    25    28    1
    28    26    29    1
    29    27    30    1
    30     8    12    1
    31    11    16   ar
    32    15    18   ar
    33    25    26    1
    34     9    31    1
    35    10    32    1
    36    11    33    1
    37    12    34    1
    38    13    35    1
    39    14    36    1
    40    15    37    1
    41    17    38    1
    42    18    39    1
    43    19    40    1
    44    19    41    1
    45    21    42    1
    46    22    43    1
    47    23    44    1
    48    24    45    1
    49    25    46    1
    50    26    47    1
    51    27    48    1
    52    27    49    1
    53    28    50    1
    54    29    51    1
    55    30    52    1
@<TRIPOS>MOLECULE
69
 30 32 0 0 0
SMALL
GASTEIGER

@<TRIPOS>ATOM
      1 O           0.9140    0.0858   -0.0059 O.2     1  UNL1       -0.2864
      2 C           2.1315    0.0793   -0.0054 C.2     1  UNL1        0.2015
      3 C           2.8977    1.3725   -0.0046 C.ar    1  UNL1        0.0748
      4 C           2.8898   -1.2198   -0.0054 C.ar    1  UNL1        0.0745
      5 C           2.2209    2.6062   -0.0042 C.ar    1  UNL1        0.1318
      6 C           4.2983    1.3597   -0.0041 C.ar    1  UNL1        0.0400
      7 C           2.2064   -2.4484   -0.0056 C.ar    1  UNL1        0.1286
      8 C           4.2898   -1.2181   -0.0051 C.ar    1  UNL1        0.0368
      9 O           0.8564    2.6724   -0.0048 O.3     1  UNL1       -0.5059
     10 C           2.9332    3.8012   -0.0027 C.ar    1  UNL1        0.0221
     11 C           5.0585    0.0685   -0.0045 C.2     1  UNL1        0.1949
     12 C           5.0022    2.5690   -0.0028 C.ar    1  UNL1       -0.0084
     13 O           0.8416   -2.4975   -0.0054 O.3     1  UNL1       -0.5060
     14 C           2.9106   -3.6499   -0.0056 C.ar    1  UNL1       -0.0165
     15 C           4.9848   -2.4332   -0.0052 C.ar    1  UNL1       -0.0471
     16 C           4.3233    3.7830   -0.0019 C.ar    1  UNL1        0.1210
     17 O           6.2746    0.0644   -0.0041 O.2     1  UNL1       -0.2866
     18 C           4.3034   -3.6484   -0.0055 C.ar    1  UNL1       -0.0463
     19 O           5.0187    4.9526    0.0004 O.3     1  UNL1       -0.5066
     20 C           5.0803   -4.9536   -0.0055 C.3     1  UNL1       -0.0396
     21 H           0.5163    1.7363   -0.0055 H       1  UNL1        0.2922
     22 H           2.3982    4.7484   -0.0021 H       1  UNL1        0.0691
     23 H           6.0903    2.5726   -0.0022 H       1  UNL1        0.0661
     24 H           0.5144   -1.5548   -0.0051 H       1  UNL1        0.2922
     25 H           2.3657   -4.5917   -0.0057 H       1  UNL1        0.0657
     26 H           6.0729   -2.4392   -0.0050 H       1  UNL1        0.0627
     27 H           4.3900    5.6967    0.0040 H       1  UNL1        0.2921
     28 H           4.4092   -5.8156   -0.0061 H       1  UNL1        0.0278
     29 H           5.7160   -5.0180    0.8805 H       1  UNL1        0.0278
     30 H           5.7168   -5.0174   -0.8910 H       1  UNL1        0.0278
@<TRIPOS>BOND
     1     1     2    2
     2     2     3    1
     3     2     4    1
     4     3     5   ar
     5     3     6   ar
     6     4     7   ar
     7     4     8   ar
     8     5     9    1
     9     5    10   ar
    10     6    11    1
    11     6    12   ar
    12     7    13    1
    13     7    14   ar
    14     8    15   ar
    15    10    16   ar
    16    11    17    2
    17    14    18   ar
    18    16    19    1
    19    18    20    1
    20     8    11    1
    21    12    16   ar
    22    15    18   ar
    23     9    21    1
    24    10    22    1
    25    12    23    1
    26    13    24    1
    27    14    25    1
    28    15    26    1
    29    19    27    1
    30    20    28    1
    31    20    29    1
    32    20    30    1
@<TRIPOS>MOLECULE
74
 28 30 0 0 0
SMALL
GASTEIGER

@<TRIPOS>ATOM
      1 O          -1.5030    2.4255   -0.0067 O.2     1  UNL1       -0.2870
      2 C          -1.4472    1.2111    0.0065 C.ar    1  UNL1        0.1932
      3 C          -0.1990    0.4422    0.0244 C.ar    1  UNL1        0.0674
      4 C          -2.6343    0.3236   -0.0265 C.ar    1  UNL1        0.0287
      5 C          -0.3561   -0.9250   -0.0026 C.ar    1  UNL1        0.1395
      6 C           1.1397    0.9786    0.0309 C.ar    1  UNL1       -0.0058
      7 C          -2.5983   -0.8064   -0.0271 C.ar    1  UNL1        0.1392
      8 O          -1.6515   -1.4180   -0.0569 O.2     1  UNL1       -0.4546
      9 C           0.7977   -1.7889   -0.0135 C.ar    1  UNL1       -0.0152
     10 C           2.2504    0.1385    0.0107 C.ar    1  UNL1        0.1178
     11 C          -3.8326   -1.6849    0.0062 C.ar    1  UNL1        0.0174
     12 C           2.0794   -1.2439   -0.0087 C.ar    1  UNL1       -0.0167
     13 O           3.5081    0.6635    0.0087 O.3     1  UNL1       -0.5067
     14 C          -3.8227   -2.9800   -0.5551 C.ar    1  UNL1       -0.0511
     15 C          -5.0376   -1.2218    0.5775 C.ar    1  UNL1       -0.0511
     16 C          -4.9777   -3.7609   -0.5643 C.ar    1  UNL1       -0.0611
     17 C          -6.1845   -2.0126    0.5637 C.ar    1  UNL1       -0.0611
     18 C          -6.1589   -3.2780   -0.0112 C.ar    1  UNL1       -0.0617
     19 H          -3.5757    0.8529   -0.1261 H       1  UNL1        0.0693
     20 H           1.2597    2.0594    0.0436 H       1  UNL1        0.0662
     21 H           0.6672   -2.8681   -0.0246 H       1  UNL1        0.0656
     22 H           2.9469   -1.8994   -0.0201 H       1  UNL1        0.0655
     23 H           3.4669    1.6377    0.0083 H       1  UNL1        0.2921
     24 H          -2.9198   -3.3831   -1.0078 H       1  UNL1        0.0625
     25 H          -5.0974   -0.2423    1.0445 H       1  UNL1        0.0625
     26 H          -4.9575   -4.7510   -1.0130 H       1  UNL1        0.0618
     27 H          -7.1056   -1.6363    1.0025 H       1  UNL1        0.0618
     28 H          -7.0591   -3.8879   -0.0266 H       1  UNL1        0.0618
@<TRIPOS>BOND
     1     1     2    2
     2     2     3   ar
     3     2     4   ar
     4     3     5   ar
     5     3     6   ar
     6     4     7   ar
     7     5     8   ar
     8     5     9   ar
     9     6    10   ar
    10     7    11    1
    11     9    12   ar
    12    10    13    1
    13    11    14   ar
    14    11    15   ar
    15    14    16   ar
    16    15    17   ar
    17    16    18   ar
    18     7     8   ar
    19    10    12   ar
    20    17    18   ar
    21     4    19    1
    22     6    20    1
    23     9    21    1
    24    12    22    1
    25    13    23    1
    26    14    24    1
    27    15    25    1
    28    16    26    1
    29    17    27    1
    30    18    28    1
@<TRIPOS>MOLECULE
76
 41 43 0 0 0
SMALL
GASTEIGER

@<TRIPOS>ATOM
      1 O           2.7354    0.6394    1.1057 O.2     1  UNL1       -0.2450
      2 C           2.1980    0.2579    0.0830 C.2     1  UNL1        0.3395
      3 O           2.8410   -0.4499   -0.8835 O.3     1  UNL1       -0.4578
      4 C           0.7448    0.4657   -0.1653 C.2     1  UNL1        0.0591
      5 C           4.2596   -0.7211   -0.7063 C.3     1  UNL1        0.1063
      6 C           0.1620    0.0697   -1.4642 C.ar    1  UNL1       -0.0116
      7 C          -0.0272    1.0275    0.7810 C.2     1  UNL1       -0.0841
      8 C           5.1163    0.5016   -1.1347 C.3     1  UNL1        0.0000
      9 C           4.6915   -1.9938   -1.4814 C.3     1  UNL1        0.0000
     10 C          -0.0474    1.0358   -2.4504 C.ar    1  UNL1       -0.0538
     11 C          -0.2432   -1.2466   -1.6914 C.ar    1  UNL1       -0.0538
     12 C           6.6348    0.1397   -1.2155 C.3     1  UNL1        0.0138
     13 C           6.2503   -2.1121   -1.5585 C.3     1  UNL1        0.0138
     14 C          -0.6573    0.6897   -3.6540 C.ar    1  UNL1       -0.0612
     15 C          -0.8511   -1.5936   -2.8970 C.ar    1  UNL1       -0.0612
     16 N           6.8554   -1.1807   -0.5721 N.3     1  UNL1       -0.2992
     17 C           7.0720   -0.1027   -2.6782 C.3     1  UNL1       -0.0358
     18 C           6.7833   -1.5968   -2.9174 C.3     1  UNL1       -0.0358
     19 C          -1.0606   -0.6250   -3.8773 C.ar    1  UNL1       -0.0617
     20 C           8.2648   -1.4684   -0.2174 C.3     1  UNL1       -0.0122
     21 H           4.4466   -0.9229    0.3528 H       1  UNL1        0.0735
     22 H           0.3721    1.3335    1.7437 H       1  UNL1        0.0543
     23 H          -1.0895    1.1915    0.6139 H       1  UNL1        0.0543
     24 H           4.9802    1.3010   -0.4039 H       1  UNL1        0.0316
     25 H           4.7550    0.8884   -2.0911 H       1  UNL1        0.0316
     26 H           4.2435   -2.0018   -2.4774 H       1  UNL1        0.0316
     27 H           4.2964   -2.8642   -0.9533 H       1  UNL1        0.0316
     28 H           0.2545    2.0659   -2.2744 H       1  UNL1        0.0624
     29 H          -0.0909   -2.0028   -0.9249 H       1  UNL1        0.0624
     30 H           7.2299    0.9307   -0.7503 H       1  UNL1        0.0464
     31 H           6.5525   -3.1484   -1.3847 H       1  UNL1        0.0464
     32 H          -0.8247    1.4477   -4.4153 H       1  UNL1        0.0618
     33 H          -1.1684   -2.6188   -3.0701 H       1  UNL1        0.0618
     34 H           8.1440    0.0842   -2.7803 H       1  UNL1        0.0281
     35 H           6.5498    0.5385   -3.3918 H       1  UNL1        0.0281
     36 H           6.0742   -1.7483   -3.7343 H       1  UNL1        0.0281
     37 H           7.7105   -2.1139   -3.1759 H       1  UNL1        0.0281
     38 H          -1.5416   -0.8941   -4.8147 H       1  UNL1        0.0618
     39 H           8.6186   -0.7244    0.5011 H       1  UNL1        0.0391
     40 H           8.9111   -1.4459   -1.0989 H       1  UNL1        0.0391
     41 H           8.3305   -2.4567    0.2453 H       1  UNL1        0.0391
@<TRIPOS>BOND
     1     1     2    2
     2     2     3    1
     3     2     4    1
     4     3     5    1
     5     4     6    1
     6     4     7    2
     7     5     8    1
     8     5     9    1
     9     6    10   ar
    10     6    11   ar
    11     8    12    1
    12     9    13    1
    13    10    14   ar
    14    11    15   ar
    15    12    16    1
    16    12    17    1
    17    13    18    1
    18    14    19   ar
    19    16    20    1
    20    13    16    1
    21    15    19   ar
    22    17    18    1
    23     5    21    1
    24     7    22    1
    25     7    23    1
    26     8    24    1
    27     8    25    1
    28     9    26    1
    29     9    27    1
    30    10    28    1
    31    11    29    1
    32    12    30    1
    33    13    31    1
    34    14    32    1
    35    15    33    1
    36    17    34    1
    37    17    35    1
    38    18    36    1
    39    18    37    1
    40    19    38    1
    41    20    39    1
    42    20    40    1
    43    20    41    1
@<TRIPOS>MOLECULE
77
 26 27 0 0 0
SMALL
GASTEIGER

@<TRIPOS>ATOM
      1 N          -2.1596    3.9281   -0.9923 N.ar    1  UNL1       -0.2629
      2 C          -1.0294    3.1900   -0.9049 C.ar    1  UNL1        0.0322
      3 C          -2.2405    5.0435   -0.2341 C.ar    1  UNL1        0.0276
      4 C           0.0510    3.5262   -0.0843 C.ar    1  UNL1       -0.0122
      5 C          -1.2167    5.4492    0.6194 C.ar    1  UNL1       -0.0433
      6 C          -0.0557    4.6843    0.6941 C.ar    1  UNL1       -0.0542
      7 C           1.2986    2.6318   -0.0924 C.3     1  UNL1        0.0368
      8 N           2.3312    3.0604   -1.0612 N.3     1  UNL1       -0.2984
      9 C           2.0883    2.6245    1.2333 C.3     1  UNL1       -0.0320
     10 C           3.1118    4.1256   -0.4119 C.3     1  UNL1       -0.0008
     11 C           1.8747    3.3655   -2.4344 C.3     1  UNL1       -0.0122
     12 C           3.2072    3.6741    1.0558 C.3     1  UNL1       -0.0385
     13 H          -0.9978    2.3066   -1.5400 H       1  UNL1        0.0833
     14 H          -3.1596    5.6189   -0.3269 H       1  UNL1        0.0829
     15 H          -1.3217    6.3522    1.2155 H       1  UNL1        0.0633
     16 H           0.7472    5.0014    1.3518 H       1  UNL1        0.0622
     17 H           0.9932    1.6077   -0.3266 H       1  UNL1        0.0512
     18 H           2.5438    1.6409    1.3741 H       1  UNL1        0.0284
     19 H           1.4581    2.8285    2.1020 H       1  UNL1        0.0284
     20 H           2.5677    5.0733   -0.4700 H       1  UNL1        0.0427
     21 H           4.0991    4.2375   -0.8683 H       1  UNL1        0.0427
     22 H           1.3264    2.5110   -2.8420 H       1  UNL1        0.0391
     23 H           2.7394    3.5636   -3.0735 H       1  UNL1        0.0391
     24 H           1.2238    4.2442   -2.4374 H       1  UNL1        0.0391
     25 H           4.1818    3.2219    1.2536 H       1  UNL1        0.0278
     26 H           3.0745    4.5227    1.7309 H       1  UNL1        0.0278
@<TRIPOS>BOND
     1     1     2   ar
     2     1     3   ar
     3     2     4   ar
     4     3     5   ar
     5     4     6   ar
     6     7     8    1
     7     7     9    1
     8     8    10    1
     9     8    11    1
    10     9    12    1
    11     5     6   ar
    12    10    12    1
    13     7     4    1
    14     2    13    1
    15     3    14    1
    16     5    15    1
    17     6    16    1
    18     7    17    1
    19     9    18    1
    20     9    19    1
    21    10    20    1
    22    10    21    1
    23    11    22    1
    24    11    23    1
    25    11    24    1
    26    12    25    1
    27    12    26    1
@<TRIPOS>MOLECULE
78
 44 46 0 0 0
SMALL
GASTEIGER

@<TRIPOS>ATOM
      1 O           2.8931    1.2939   -0.1538 O.2     1  UNL1       -0.2501
      2 C           2.3223    0.2423   -0.3756 C.2     1  UNL1        0.3171
      3 O           2.9349   -0.9689   -0.3926 O.3     1  UNL1       -0.4608
      4 C           0.8261    0.1609   -0.6594 C.3     1  UNL1        0.1044
      5 C           4.3559   -1.0352   -0.0843 C.3     1  UNL1        0.1059
      6 C          -0.0106    0.1831    0.6221 C.ar    1  UNL1       -0.0315
      7 C           0.3733    1.3062   -1.5960 C.3     1  UNL1        0.0612
      8 C           5.2244   -0.4967   -1.2573 C.3     1  UNL1        0.0000
      9 C           4.7669   -2.4874    0.2773 C.3     1  UNL1        0.0000
     10 C           0.2787    1.0656    1.6710 C.ar    1  UNL1       -0.0577
     11 C          -1.1331   -0.6435    0.7268 C.ar    1  UNL1       -0.0577
     12 O           1.0006    1.2073   -2.8786 O.3     1  UNL1       -0.3939
     13 C           6.7367   -0.8397   -1.0626 C.3     1  UNL1        0.0138
     14 C           6.3211   -2.6620    0.2916 C.3     1  UNL1        0.0138
     15 C          -0.5308    1.1088    2.8046 C.ar    1  UNL1       -0.0615
     16 C          -1.9475   -0.5943    1.8576 C.ar    1  UNL1       -0.0615
     17 N           6.9548   -1.3195    0.3256 N.3     1  UNL1       -0.2992
     18 C           7.1445   -2.0540   -1.9270 C.3     1  UNL1       -0.0358
     19 C           6.8324   -3.2712   -1.0375 C.3     1  UNL1       -0.0358
     20 C          -1.6458    0.2804    2.8982 C.ar    1  UNL1       -0.0617
     21 C           8.3678   -1.3087    0.7707 C.3     1  UNL1       -0.0122
     22 H           0.6376   -0.7840   -1.1765 H       1  UNL1        0.0485
     23 H           4.5431   -0.4154    0.7985 H       1  UNL1        0.0735
     24 H           0.6165    2.2716   -1.1434 H       1  UNL1        0.0568
     25 H          -0.7102    1.2515   -1.7299 H       1  UNL1        0.0568
     26 H           5.1197    0.5881   -1.3128 H       1  UNL1        0.0316
     27 H           4.8515   -0.8943   -2.2045 H       1  UNL1        0.0316
     28 H           4.2995   -3.1949   -0.4121 H       1  UNL1        0.0316
     29 H           4.3756   -2.7162    1.2710 H       1  UNL1        0.0316
     30 H           1.1305    1.7378    1.6138 H       1  UNL1        0.0621
     31 H          -1.3893   -1.3223   -0.0831 H       1  UNL1        0.0621
     32 H           1.9591    1.3470   -2.7618 H       1  UNL1        0.2094
     33 H           7.3487    0.0363   -1.2967 H       1  UNL1        0.0464
     34 H           6.6166   -3.2787    1.1453 H       1  UNL1        0.0464
     35 H          -0.2965    1.7973    3.6130 H       1  UNL1        0.0618
     36 H          -2.8235   -1.2347    1.9244 H       1  UNL1        0.0618
     37 H           8.2168   -2.0164   -2.1364 H       1  UNL1        0.0281
     38 H           6.6174   -2.0937   -2.8830 H       1  UNL1        0.0281
     39 H           6.1049   -3.9398   -1.5036 H       1  UNL1        0.0281
     40 H           7.7481   -3.8406   -0.8602 H       1  UNL1        0.0281
     41 H          -2.2829    0.3222    3.7780 H       1  UNL1        0.0618
     42 H           8.7481   -0.2837    0.7505 H       1  UNL1        0.0391
     43 H           8.9939   -1.9322    0.1279 H       1  UNL1        0.0391
     44 H           8.4302   -1.6822    1.7964 H       1  UNL1        0.0391
@<TRIPOS>BOND
     1     1     2    2
     2     2     3    1
     3     2     4    1
     4     3     5    1
     5     4     6    1
     6     4     7    1
     7     5     8    1
     8     5     9    1
     9     6    10   ar
    10     6    11   ar
    11     7    12    1
    12     8    13    1
    13     9    14    1
    14    10    15   ar
    15    11    16   ar
    16    13    17    1
    17    13    18    1
    18    14    19    1
    19    15    20   ar
    20    17    21    1
    21    14    17    1
    22    16    20   ar
    23    18    19    1
    24     4    22    1
    25     5    23    1
    26     7    24    1
    27     7    25    1
    28     8    26    1
    29     8    27    1
    30     9    28    1
    31     9    29    1
    32    10    30    1
    33    11    31    1
    34    12    32    1
    35    13    33    1
    36    14    34    1
    37    15    35    1
    38    16    36    1
    39    18    37    1
    40    18    38    1
    41    19    39    1
    42    19    40    1
    43    20    41    1
    44    21    42    1
    45    21    43    1
    46    21    44    1
@<TRIPOS>MOLECULE
84
 30 32 0 0 0
SMALL
GASTEIGER

@<TRIPOS>ATOM
      1 O          -0.0128   -2.3517    0.0127 O.2     1  UNL1       -0.2864
      2 C          -0.0087   -1.1341    0.0093 C.2     1  UNL1        0.2015
      3 C           1.2927   -0.3750    0.0033 C.ar    1  UNL1        0.0745
      4 C          -1.3046   -0.3660    0.0100 C.ar    1  UNL1        0.0745
      5 C           2.5278   -1.0510   -0.0094 C.ar    1  UNL1        0.1287
      6 C           1.2879    1.0257    0.0130 C.ar    1  UNL1        0.0369
      7 C          -2.5448   -1.0343    0.0179 C.ar    1  UNL1        0.1283
      8 C          -1.2891    1.0353    0.0003 C.ar    1  UNL1        0.0366
      9 O           2.6014   -2.4155   -0.0302 O.3     1  UNL1       -0.5060
     10 C           3.7251   -0.3384   -0.0024 C.ar    1  UNL1       -0.0141
     11 C           0.0022    1.7943    0.0085 C.2     1  UNL1        0.1947
     12 C           2.4988    1.7269    0.0267 C.ar    1  UNL1       -0.0446
     13 O          -2.6289   -2.3978    0.0456 O.3     1  UNL1       -0.5060
     14 C          -3.7366   -0.3134    0.0019 C.ar    1  UNL1       -0.0194
     15 C          -2.4952    1.7456   -0.0145 C.ar    1  UNL1       -0.0500
     16 C           3.7178    1.0533    0.0201 C.ar    1  UNL1       -0.0180
     17 O           0.0061    3.0104    0.0109 O.2     1  UNL1       -0.2866
     18 C          -3.7131    1.0754   -0.0173 C.ar    1  UNL1       -0.0576
     19 C           5.0220    1.8326    0.0498 C.3     1  UNL1        0.0694
     20 O           5.1030    2.7101   -1.0736 O.3     1  UNL1       -0.3904
     21 H           1.6759   -2.7755   -0.0319 H       1  UNL1        0.2922
     22 H           4.6706   -0.8766   -0.0105 H       1  UNL1        0.0658
     23 H           2.5002    2.8151    0.0414 H       1  UNL1        0.0628
     24 H          -1.7067   -2.7622    0.0650 H       1  UNL1        0.2922
     25 H          -4.6902   -0.8368    0.0046 H       1  UNL1        0.0654
     26 H          -2.4951    2.8334   -0.0261 H       1  UNL1        0.0625
     27 H          -4.6446    1.6363   -0.0316 H       1  UNL1        0.0619
     28 H           5.8797    1.1542    0.0323 H       1  UNL1        0.0607
     29 H           5.0794    2.4266    0.9663 H       1  UNL1        0.0607
     30 H           5.0820    2.1768   -1.8885 H       1  UNL1        0.2098
@<TRIPOS>BOND
     1     1     2    2
     2     2     3    1
     3     2     4    1
     4     3     5   ar
     5     3     6   ar
     6     4     7   ar
     7     4     8   ar
     8     5     9    1
     9     5    10   ar
    10     6    11    1
    11     6    12   ar
    12     7    13    1
    13     7    14   ar
    14     8    15   ar
    15    10    16   ar
    16    11    17    2
    17    14    18   ar
    18    16    19    1
    19    19    20    1
    20     8    11    1
    21    12    16   ar
    22    15    18   ar
    23     9    21    1
    24    10    22    1
    25    12    23    1
    26    13    24    1
    27    14    25    1
    28    15    26    1
    29    18    27    1
    30    19    28    1
    31    19    29    1
    32    20    30    1
@<TRIPOS>MOLECULE
86
 49 49 0 0 0
SMALL
GASTEIGER

@<TRIPOS>ATOM
      1 O           1.4930    0.8917   -0.4561 O.2     1  UNL1       -0.2758
      2 C           2.1479   -0.0302   -0.0116 C.2     1  UNL1        0.2133
      3 N           2.2650   -1.2146   -0.6527 N.am    1  UNL1       -0.3112
      4 C           2.9325    0.0847    1.2810 C.3     1  UNL1        0.0240
      5 C           1.5722   -1.5620   -1.8982 C.3     1  UNL1        0.0369
      6 C           4.4626    0.1461    1.0517 C.3     1  UNL1       -0.0445
      7 C           2.5447   -1.7857   -3.0405 C.ar    1  UNL1       -0.0266
      8 C           4.9178    1.2759    0.0959 C.3     1  UNL1       -0.0492
      9 C           2.9677   -0.7069   -3.8209 C.ar    1  UNL1       -0.0116
     10 C           3.0102   -3.0715   -3.3230 C.ar    1  UNL1       -0.0534
     11 C           4.5925    2.6862    0.6319 C.3     1  UNL1       -0.0347
     12 C           3.8481   -0.9144   -4.8887 C.ar    1  UNL1        0.1616
     13 C           3.8883   -3.2811   -4.3841 C.ar    1  UNL1       -0.0162
     14 C           5.0571    3.7552   -0.3315 C.2     1  UNL1       -0.0877
     15 O           4.2975    0.1119   -5.7077 O.3     1  UNL1       -0.4914
     16 C           4.3017   -2.2047   -5.1641 C.ar    1  UNL1        0.1585
     17 C           4.2306    4.5977   -0.9381 C.2     1  UNL1       -0.0854
     18 C           3.8846    1.4892   -5.5499 C.3     1  UNL1        0.0790
     19 O           5.1503   -2.3926   -6.2100 O.3     1  UNL1       -0.5033
     20 C           4.6798    5.6777   -1.8993 C.3     1  UNL1       -0.0286
     21 C           4.0193    5.4767   -3.2779 C.3     1  UNL1       -0.0592
     22 C           4.3395    7.0704   -1.3323 C.3     1  UNL1       -0.0592
     23 H           2.8603   -1.9215   -0.2493 H       1  UNL1        0.1490
     24 H           2.7046   -0.7773    1.9122 H       1  UNL1        0.0358
     25 H           2.5970    0.9665    1.8322 H       1  UNL1        0.0358
     26 H           0.8638   -0.7714   -2.1612 H       1  UNL1        0.0512
     27 H           0.9922   -2.4710   -1.7167 H       1  UNL1        0.0512
     28 H           4.7976   -0.8107    0.6435 H       1  UNL1        0.0270
     29 H           4.9611    0.2670    2.0164 H       1  UNL1        0.0270
     30 H           4.4598    1.1405   -0.8872 H       1  UNL1        0.0268
     31 H           5.9982    1.1936   -0.0462 H       1  UNL1        0.0268
     32 H           2.6003    0.2886   -3.5874 H       1  UNL1        0.0658
     33 H           2.6867   -3.9156   -2.7193 H       1  UNL1        0.0622
     34 H           5.0780    2.8328    1.5998 H       1  UNL1        0.0307
     35 H           3.5170    2.7841    0.7914 H       1  UNL1        0.0307
     36 H           4.2460   -4.2840   -4.6054 H       1  UNL1        0.0655
     37 H           6.1292    3.8102   -0.5081 H       1  UNL1        0.0569
     38 H           3.1593    4.5379   -0.7550 H       1  UNL1        0.0572
     39 H           4.3780    2.0946   -6.3150 H       1  UNL1        0.0660
     40 H           4.1761    1.8475   -4.5586 H       1  UNL1        0.0660
     41 H           2.8003    1.5617   -5.6728 H       1  UNL1        0.0660
     42 H           5.2857   -1.5059   -6.6048 H       1  UNL1        0.2923
     43 H           5.7636    5.6222   -2.0314 H       1  UNL1        0.0338
     44 H           2.9307    5.5347   -3.1996 H       1  UNL1        0.0235
     45 H           4.2827    4.4985   -3.6871 H       1  UNL1        0.0235
     46 H           4.3559    6.2417   -3.9812 H       1  UNL1        0.0235
     47 H           3.2612    7.1820   -1.1947 H       1  UNL1        0.0235
     48 H           4.6847    7.8567   -2.0079 H       1  UNL1        0.0235
     49 H           4.8255    7.2163   -0.3645 H       1  UNL1        0.0235
@<TRIPOS>BOND
     1     1     2    2
     2     2     3   am
     3     2     4    1
     4     3     5    1
     5     4     6    1
     6     5     7    1
     7     6     8    1
     8     7     9   ar
     9     7    10   ar
    10     8    11    1
    11     9    12   ar
    12    10    13   ar
    13    11    14    1
    14    12    15    1
    15    12    16   ar
    16    14    17    2
    17    15    18    1
    18    16    19    1
    19    17    20    1
    20    20    21    1
    21    20    22    1
    22    13    16   ar
    23     3    23    1
    24     4    24    1
    25     4    25    1
    26     5    26    1
    27     5    27    1
    28     6    28    1
    29     6    29    1
    30     8    30    1
    31     8    31    1
    32     9    32    1
    33    10    33    1
    34    11    34    1
    35    11    35    1
    36    13    36    1
    37    14    37    1
    38    17    38    1
    39    18    39    1
    40    18    40    1
    41    18    41    1
    42    19    42    1
    43    20    43    1
    44    21    44    1
    45    21    45    1
    46    21    46    1
    47    22    47    1
    48    22    48    1
    49    22    49    1
@<TRIPOS>MOLECULE
88
 27 28 0 0 0
SMALL
GASTEIGER

@<TRIPOS>ATOM
      1 O           1.4036    0.0168    1.5326 O.2     1  UNL1       -0.2971
      2 C           2.4411   -0.1348    0.9185 C.2     1  UNL1        0.1370
      3 C           3.0616    0.9500    0.0659 C.3     1  UNL1        0.0181
      4 C           3.0161   -1.4916    0.5928 C.3     1  UNL1        0.0123
      5 C           3.9702    0.2259   -0.9527 C.3     1  UNL1       -0.0250
      6 C           3.8338    1.9534    0.9492 C.3     1  UNL1       -0.0554
      7 C           3.9135   -1.2802   -0.6432 C.3     1  UNL1       -0.0165
      8 C           5.2045   -0.5053   -0.4488 C.3     1  UNL1       -0.0425
      9 C           3.9036   -2.2933   -1.8191 C.3     1  UNL1       -0.0404
     10 C           4.4132   -3.6637   -1.3243 C.3     1  UNL1       -0.0621
     11 C           2.5080   -2.4306   -2.4662 C.3     1  UNL1       -0.0621
     12 H           2.2730    1.4767   -0.4775 H       1  UNL1        0.0377
     13 H           2.2106   -2.1999    0.3933 H       1  UNL1        0.0347
     14 H           3.6074   -1.8611    1.4343 H       1  UNL1        0.0347
     15 H           3.9262    0.4810   -2.0135 H       1  UNL1        0.0313
     16 H           4.5398    1.4408    1.6061 H       1  UNL1        0.0236
     17 H           3.1389    2.5108    1.5818 H       1  UNL1        0.0236
     18 H           4.3872    2.6668    0.3348 H       1  UNL1        0.0236
     19 H           5.5107   -0.3379    0.5776 H       1  UNL1        0.0274
     20 H           5.9878   -0.6643   -1.1872 H       1  UNL1        0.0274
     21 H           4.5894   -1.9441   -2.5948 H       1  UNL1        0.0301
     22 H           3.7420   -4.0837   -0.5714 H       1  UNL1        0.0233
     23 H           5.4064   -3.5635   -0.8795 H       1  UNL1        0.0233
     24 H           4.4836   -4.3710   -2.1537 H       1  UNL1        0.0233
     25 H           1.7720   -2.8148   -1.7574 H       1  UNL1        0.0233
     26 H           2.5507   -3.1208   -3.3114 H       1  UNL1        0.0233
     27 H           2.1595   -1.4642   -2.8371 H       1  UNL1        0.0233
@<TRIPOS>BOND
     1     1     2    2
     2     2     3    1
     3     2     4    1
     4     3     5    1
     5     3     6    1
     6     4     7    1
     7     5     8    1
     8     7     9    1
     9     9    10    1
    10     9    11    1
    11     5     7    1
    12     7     8    1
    13     3    12    1
    14     4    13    1
    15     4    14    1
    16     5    15    1
    17     6    16    1
    18     6    17    1
    19     6    18    1
    20     8    19    1
    21     8    20    1
    22     9    21    1
    23    10    22    1
    24    10    23    1
    25    10    24    1
    26    11    25    1
    27    11    26    1
    28    11    27    1
@<TRIPOS>MOLECULE
89
 29 30 0 0 0
SMALL
GASTEIGER

@<TRIPOS>ATOM
      1 O           0.9427    0.1894   -0.0920 O.3     1  UNL1       -0.3912
      2 C           2.3706    0.0848   -0.1016 C.3     1  UNL1        0.0614
      3 C           2.9230   -1.0225    0.8512 C.3     1  UNL1       -0.0007
      4 C           2.9028   -0.3651   -1.4859 C.3     1  UNL1       -0.0230
      5 C           4.3323   -1.3083    0.2517 C.3     1  UNL1       -0.0242
      6 C           2.1512   -2.3449    0.5574 C.3     1  UNL1       -0.0445
      7 C           2.8952   -0.6153    2.3407 C.3     1  UNL1       -0.0567
      8 C           3.7266   -1.6347   -1.1370 C.3     1  UNL1       -0.0329
      9 C           5.1156   -2.4942    0.8988 C.3     1  UNL1       -0.0590
     10 C           5.3229   -0.1008    0.2453 C.3     1  UNL1       -0.0590
     11 C           2.6959   -2.7546   -0.8324 C.3     1  UNL1       -0.0490
     12 H           0.6558    0.3847    0.8181 H       1  UNL1        0.2098
     13 H           2.7916    1.0586    0.1619 H       1  UNL1        0.0599
     14 H           3.5378    0.4073   -1.9257 H       1  UNL1        0.0293
     15 H           2.0989   -0.5805   -2.1946 H       1  UNL1        0.0293
     16 H           1.0666   -2.2182    0.5458 H       1  UNL1        0.0272
     17 H           2.3760   -3.1117    1.3020 H       1  UNL1        0.0272
     18 H           3.4651    0.3018    2.5041 H       1  UNL1        0.0236
     19 H           3.3220   -1.4012    2.9672 H       1  UNL1        0.0236
     20 H           1.8679   -0.4406    2.6683 H       1  UNL1        0.0236
     21 H           4.4531   -1.9082   -1.9060 H       1  UNL1        0.0307
     22 H           5.4500   -2.2260    1.9038 H       1  UNL1        0.0235
     23 H           6.0043   -2.7231    0.3056 H       1  UNL1        0.0235
     24 H           4.5461   -3.4184    0.9874 H       1  UNL1        0.0235
     25 H           5.6642    0.1166    1.2601 H       1  UNL1        0.0235
     26 H           4.9091    0.8228   -0.1573 H       1  UNL1        0.0235
     27 H           6.2036   -0.3435   -0.3541 H       1  UNL1        0.0235
     28 H           1.9012   -2.7967   -1.5814 H       1  UNL1        0.0268
     29 H           3.1743   -3.7360   -0.7926 H       1  UNL1        0.0268
@<TRIPOS>BOND
     1     1     2    1
     2     2     3    1
     3     2     4    1
     4     3     5    1
     5     3     6    1
     6     3     7    1
     7     4     8    1
     8     5     9    1
     9     5    10    1
    10     6    11    1
    11     5     8    1
    12     8    11    1
    13     1    12    1
    14     2    13    1
    15     4    14    1
    16     4    15    1
    17     6    16    1
    18     6    17    1
    19     7    18    1
    20     7    19    1
    21     7    20    1
    22     8    21    1
    23     9    22    1
    24     9    23    1
    25     9    24    1
    26    10    25    1
    27    10    26    1
    28    10    27    1
    29    11    28    1
    30    11    29    1
@<TRIPOS>MOLECULE
97
 53 56 0 0 0
SMALL
GASTEIGER

@<TRIPOS>ATOM
      1 O          -1.4146    0.5149   -1.6198 O.2     1  UNL1       -0.2830
      2 C          -0.2366    0.4405   -1.3160 C.ar    1  UNL1        0.2379
      3 C           0.6787    1.6139   -1.3180 C.ar    1  UNL1        0.2082
      4 C           0.4278   -0.8123   -0.9140 C.ar    1  UNL1        0.1092
      5 O           0.0249    2.7355   -1.7220 O.3     1  UNL1       -0.5007
      6 C           1.7688    1.4883   -1.0303 C.ar    1  UNL1        0.1807
      7 C           1.7707   -0.7024   -0.6254 C.ar    1  UNL1        0.1465
      8 C          -0.1977   -2.1124   -0.7947 C.ar    1  UNL1        0.1348
      9 O           2.3496    0.5628   -0.7378 O.2     1  UNL1       -0.4507
     10 C           2.7499    2.6156   -0.7960 C.ar    1  UNL1        0.0247
     11 C           2.5147   -1.8810   -0.2128 C.ar    1  UNL1        0.0231
     12 O          -1.5167   -2.2710   -1.0707 O.3     1  UNL1       -0.5058
     13 C           0.5217   -3.2253   -0.3874 C.ar    1  UNL1        0.0223
     14 C           2.7322    3.3535    0.4023 C.ar    1  UNL1       -0.0057
     15 C           3.6951    2.9666   -1.7751 C.ar    1  UNL1       -0.0473
     16 C           1.8733   -3.1224   -0.0959 C.ar    1  UNL1        0.1239
     17 C           3.6314    4.4056    0.6162 C.ar    1  UNL1        0.1592
     18 C           4.5776    4.0284   -1.5625 C.ar    1  UNL1       -0.0155
     19 O           2.5062   -4.2700    0.2979 O.3     1  UNL1       -0.5065
     20 O           3.6226    5.0243    1.8309 O.3     1  UNL1       -0.5033
     21 C           4.5515    4.7697   -0.3804 C.ar    1  UNL1        0.1652
     22 O           5.5216    5.7653   -0.2390 O.3     1  UNL1       -0.4572
     23 C           5.4110    6.9910    0.5552 C.3     1  UNL1        0.2310
     24 O           4.4461    7.9234   -0.0146 O.3     1  UNL1       -0.3313
     25 C           6.7916    7.6950    0.6184 C.3     1  UNL1        0.1454
     26 C           4.7511    8.3874   -1.3576 C.3     1  UNL1        0.1140
     27 O           7.7788    6.8061    1.1531 O.3     1  UNL1       -0.3829
     28 C           7.2132    8.1851   -0.7891 C.3     1  UNL1        0.1152
     29 C           6.1279    9.1112   -1.3815 C.3     1  UNL1        0.1120
     30 C           3.5754    9.2333   -1.9069 C.3     1  UNL1        0.0731
     31 O           8.4413    8.9175   -0.7251 O.3     1  UNL1       -0.3864
     32 O           6.1250   10.3518   -0.6518 O.3     1  UNL1       -0.3865
     33 O           3.2928   10.3874   -1.1059 O.3     1  UNL1       -0.3924
     34 H          -0.9045    2.4683   -1.9373 H       1  UNL1        0.2924
     35 H           3.5749   -1.7845    0.0079 H       1  UNL1        0.0691
     36 H          -1.8480   -1.3943   -1.3314 H       1  UNL1        0.2922
     37 H           0.0213   -4.1878   -0.2990 H       1  UNL1        0.0691
     38 H           2.0190    3.0965    1.1812 H       1  UNL1        0.0662
     39 H           3.7480    2.4141   -2.7099 H       1  UNL1        0.0626
     40 H           5.3073    4.2752   -2.3293 H       1  UNL1        0.0655
     41 H           3.4595   -4.1684    0.4226 H       1  UNL1        0.2921
     42 H           3.1910    4.4543    2.4846 H       1  UNL1        0.2923
     43 H           5.0963    6.7439    1.5777 H       1  UNL1        0.1084
     44 H           6.7084    8.5555    1.2880 H       1  UNL1        0.0683
     45 H           4.8310    7.5013   -1.9945 H       1  UNL1        0.0647
     46 H           7.9402    6.1030    0.5001 H       1  UNL1        0.2102
     47 H           7.3463    7.3185   -1.4423 H       1  UNL1        0.0648
     48 H           6.3897    9.3271   -2.4212 H       1  UNL1        0.0647
     49 H           2.6800    8.6072   -1.9487 H       1  UNL1        0.0584
     50 H           3.8135    9.5569   -2.9236 H       1  UNL1        0.0584
     51 H           8.1910    9.8514   -0.5719 H       1  UNL1        0.2100
     52 H           5.3765   10.3597   -0.0250 H       1  UNL1        0.2100
     53 H           3.0115   10.1054   -0.2182 H       1  UNL1        0.2095
@<TRIPOS>BOND
     1     1     2    2
     2     2     3   ar
     3     2     4   ar
     4     3     5    1
     5     3     6   ar
     6     4     7   ar
     7     4     8   ar
     8     6     9   ar
     9     6    10    1
    10     7    11   ar
    11     8    12    1
    12     8    13   ar
    13    10    14   ar
    14    10    15   ar
    15    11    16   ar
    16    14    17   ar
    17    15    18   ar
    18    16    19    1
    19    17    20    1
    20    17    21   ar
    21    21    22    1
    22    22    23    1
    23    23    24    1
    24    23    25    1
    25    24    26    1
    26    25    27    1
    27    25    28    1
    28    26    29    1
    29    26    30    1
    30    28    31    1
    31    29    32    1
    32    30    33    1
    33     7     9   ar
    34    13    16   ar
    35    18    21   ar
    36    28    29    1
    37     5    34    1
    38    11    35    1
    39    12    36    1
    40    13    37    1
    41    14    38    1
    42    15    39    1
    43    18    40    1
    44    19    41    1
    45    20    42    1
    46    23    43    1
    47    25    44    1
    48    26    45    1
    49    27    46    1
    50    28    47    1
    51    29    48    1
    52    30    49    1
    53    30    50    1
    54    31    51    1
    55    32    52    1
    56    33    53    1
@<TRIPOS>MOLECULE
100
 44 47 0 0 0
SMALL
GASTEIGER

@<TRIPOS>ATOM
      1 O           1.3170   -0.3625   -0.7769 O.3     1  UNL1       -0.3856
      2 C           2.4667    0.0838   -0.0493 C.3     1  UNL1        0.0963
      3 C           2.4062    1.5852    0.2503 C.ar    1  UNL1       -0.0071
      4 C           2.7277   -0.7688    1.2280 C.3     1  UNL1        0.0408
      5 C           3.5699    2.3718    0.3707 C.ar    1  UNL1        0.0061
      6 C           1.1701    2.2214    0.3871 C.ar    1  UNL1       -0.0373
      7 N           1.6328   -0.7709    2.2602 N.3     1  UNL1       -0.2960
      8 C           3.1540   -2.2284    0.8810 C.3     1  UNL1       -0.0312
      9 C           3.4380    3.7592    0.5837 C.ar    1  UNL1        0.0713
     10 C           4.8551    1.8138    0.2865 C.ar    1  UNL1       -0.0522
     11 C           1.1229    3.5953    0.5980 C.ar    1  UNL1        0.0286
     12 C           0.4373   -1.5762    1.8596 C.3     1  UNL1        0.0058
     13 C           2.1765   -1.3802    3.5093 C.3     1  UNL1       -0.0004
     14 C           2.3613   -3.2236    1.7635 C.3     1  UNL1       -0.0310
     15 N           2.2305    4.3581    0.6890 N.ar    1  UNL1       -0.2550
     16 C           4.5858    4.5478    0.6895 C.ar    1  UNL1       -0.0357
     17 C           5.9876    2.6151    0.4023 C.ar    1  UNL1       -0.0611
     18 C           0.8578   -3.0133    1.4301 C.3     1  UNL1       -0.0075
     19 C           2.6265   -2.8480    3.2478 C.3     1  UNL1       -0.0367
     20 C           5.8539    3.9830    0.5994 C.ar    1  UNL1       -0.0597
     21 C          -0.0244   -4.0741    2.0594 C.2     1  UNL1       -0.0865
     22 C          -0.7320   -4.9498    1.3583 C.2     1  UNL1       -0.1023
     23 H           1.1836    0.2383   -1.5318 H       1  UNL1        0.2103
     24 H           3.3058   -0.0894   -0.7260 H       1  UNL1        0.0659
     25 H           3.5945   -0.3062    1.7089 H       1  UNL1        0.0491
     26 H           0.2404    1.6612    0.3232 H       1  UNL1        0.0636
     27 H           4.2266   -2.3463    1.0539 H       1  UNL1        0.0284
     28 H           2.9770   -2.4504   -0.1743 H       1  UNL1        0.0284
     29 H           5.0063    0.7498    0.1416 H       1  UNL1        0.0624
     30 H           0.1746    4.1199    0.6927 H       1  UNL1        0.0830
     31 H          -0.1072   -1.0898    1.0487 H       1  UNL1        0.0432
     32 H          -0.2487   -1.6332    2.7099 H       1  UNL1        0.0432
     33 H           1.4098   -1.3683    4.2900 H       1  UNL1        0.0427
     34 H           3.0280   -0.7942    3.8670 H       1  UNL1        0.0427
     35 H           2.6710   -4.2506    1.5544 H       1  UNL1        0.0308
     36 H           4.4919    5.6205    0.8470 H       1  UNL1        0.0639
     37 H           6.9770    2.1679    0.3390 H       1  UNL1        0.0618
     38 H           0.7464   -3.0783    0.3440 H       1  UNL1        0.0358
     39 H           2.0928   -3.5271    3.9159 H       1  UNL1        0.0280
     40 H           3.6911   -2.9509    3.4717 H       1  UNL1        0.0280
     41 H           6.7374    4.6101    0.6876 H       1  UNL1        0.0618
     42 H          -0.0648   -4.0959    3.1456 H       1  UNL1        0.0570
     43 H          -0.7165   -4.9527    0.2708 H       1  UNL1        0.0532
     44 H          -1.3516   -5.6938    1.8525 H       1  UNL1        0.0532
@<TRIPOS>BOND
     1     1     2    1
     2     2     3    1
     3     2     4    1
     4     3     5   ar
     5     3     6   ar
     6     4     7    1
     7     4     8    1
     8     5     9   ar
     9     5    10   ar
    10     6    11   ar
    11     7    12    1
    12     7    13    1
    13     8    14    1
    14     9    15   ar
    15     9    16   ar
    16    10    17   ar
    17    12    18    1
    18    13    19    1
    19    16    20   ar
    20    18    21    1
    21    21    22    2
    22    11    15   ar
    23    14    18    1
    24    14    19    1
    25    17    20   ar
    26     1    23    1
    27     2    24    1
    28     4    25    1
    29     6    26    1
    30     8    27    1
    31     8    28    1
    32    10    29    1
    33    11    30    1
    34    12    31    1
    35    12    32    1
    36    13    33    1
    37    13    34    1
    38    14    35    1
    39    16    36    1
    40    17    37    1
    41    18    38    1
    42    19    39    1
    43    19    40    1
    44    20    41    1
    45    21    42    1
    46    22    43    1
    47    22    44    1
@<TRIPOS>MOLECULE
101
 20 22 0 0 0
SMALL
GASTEIGER

@<TRIPOS>ATOM
      1 O          -4.0592   -0.8765    0.2497 O.2     1  UNL1       -0.2452
      2 C          -2.9927   -0.3038    0.1632 C.ar    1  UNL1        0.3372
      3 O          -1.8318   -0.9920    0.0305 O.2     1  UNL1       -0.4220
      4 C          -2.8478    1.1593    0.1851 C.ar    1  UNL1        0.0236
      5 C          -0.5731   -0.4281   -0.0518 C.ar    1  UNL1        0.1426
      6 C          -1.5717    1.8021    0.0520 C.ar    1  UNL1       -0.0443
      7 C          -0.4408    1.0080   -0.0798 C.ar    1  UNL1        0.0184
      8 C           0.5550   -1.3180   -0.1553 C.ar    1  UNL1        0.0243
      9 C           0.8237    1.5668   -0.2491 C.ar    1  UNL1       -0.0403
     10 C           1.8335   -0.7351   -0.4825 C.ar    1  UNL1        0.1383
     11 C           1.9504    0.6858   -0.4119 C.ar    1  UNL1        0.0209
     12 O           3.0232   -1.2926   -0.0944 O.2     1  UNL1       -0.4628
     13 C           3.2715    0.9797    0.0367 C.ar    1  UNL1       -0.0161
     14 C           3.8808   -0.2461    0.1697 C.ar    1  UNL1        0.0931
     15 H          -3.7725    1.7173    0.2909 H       1  UNL1        0.0689
     16 H          -1.4958    2.8863    0.0334 H       1  UNL1        0.0627
     17 H           0.5337   -2.3991   -0.0438 H       1  UNL1        0.0692
     18 H           0.9532    2.6460   -0.2782 H       1  UNL1        0.0632
     19 H           3.6680    1.9521    0.3094 H       1  UNL1        0.0655
     20 H           4.8616   -0.5398    0.5247 H       1  UNL1        0.1029
@<TRIPOS>BOND
     1     1     2    2
     2     2     3   ar
     3     2     4   ar
     4     3     5   ar
     5     4     6   ar
     6     5     7   ar
     7     5     8   ar
     8     7     9   ar
     9     8    10   ar
    10     9    11   ar
    11    10    12   ar
    12    11    13   ar
    13    12    14   ar
    14     6     7   ar
    15    10    11   ar
    16    13    14   ar
    17     4    15    1
    18     6    16    1
    19     8    17    1
    20     9    18    1
    21    13    19    1
    22    14    20    1
@<TRIPOS>MOLECULE
103
 53 56 0 0 0
SMALL
GASTEIGER

@<TRIPOS>ATOM
      1 O           1.2415    2.3326   -0.0900 O.2     1  UNL1       -0.2917
      2 C           1.2762    1.1204    0.0093 C.2     1  UNL1        0.1740
      3 C           0.0470    0.2483    0.0051 C.ar    1  UNL1        0.1007
      4 C           2.5977    0.4361    0.2708 C.3     1  UNL1        0.0520
      5 C           0.2077   -1.1422    0.0633 C.ar    1  UNL1        0.1389
      6 C          -1.2531    0.7775   -0.0285 C.ar    1  UNL1        0.1343
      7 C           2.6305   -0.9732   -0.3469 C.3     1  UNL1        0.1322
      8 O           1.4649   -1.7120    0.0925 O.3     1  UNL1       -0.4828
      9 C          -0.8989   -1.9854    0.1167 C.ar    1  UNL1        0.0229
     10 O          -1.4721    2.1244   -0.0805 O.3     1  UNL1       -0.5058
     11 C          -2.3591   -0.0715    0.0377 C.ar    1  UNL1        0.0226
     12 C           3.8834   -1.7142    0.0899 C.ar    1  UNL1       -0.0067
     13 C          -2.1864   -1.4580    0.1170 C.ar    1  UNL1        0.1310
     14 C           3.9079   -2.4289    1.2906 C.ar    1  UNL1       -0.0516
     15 C           5.0428   -1.6267   -0.6818 C.ar    1  UNL1       -0.0516
     16 O          -3.2450   -2.3477    0.2103 O.3     1  UNL1       -0.4606
     17 C           5.0772   -3.0522    1.7145 C.ar    1  UNL1       -0.0198
     18 C           6.2170   -2.2441   -0.2543 C.ar    1  UNL1       -0.0198
     19 C          -4.6213   -1.9298    0.3990 C.3     1  UNL1        0.2308
     20 C           6.2323   -2.9548    0.9423 C.ar    1  UNL1        0.1169
     21 O          -4.7797   -1.2210    1.6575 O.3     1  UNL1       -0.3313
     22 C          -5.5410   -3.1727    0.4046 C.3     1  UNL1        0.1454
     23 O           7.3815   -3.5440    1.3674 O.3     1  UNL1       -0.5068
     24 C          -4.4265   -1.9692    2.8529 C.3     1  UNL1        0.1140
     25 O          -5.3502   -3.9340   -0.7957 O.3     1  UNL1       -0.3829
     26 C          -5.2571   -4.0503    1.6489 C.3     1  UNL1        0.1152
     27 C          -5.3353   -3.2174    2.9507 C.3     1  UNL1        0.1120
     28 C          -4.5837   -1.0488    4.0844 C.3     1  UNL1        0.0731
     29 O          -6.2290   -5.0917    1.7381 O.3     1  UNL1       -0.3864
     30 O          -6.6921   -2.8164    3.1881 O.3     1  UNL1       -0.3865
     31 O          -3.6768    0.0499    3.9946 O.3     1  UNL1       -0.3924
     32 H           2.7417    0.3645    1.3517 H       1  UNL1        0.0385
     33 H           3.4142    1.0360   -0.1381 H       1  UNL1        0.0385
     34 H           2.5889   -0.8898   -1.4376 H       1  UNL1        0.0789
     35 H          -0.7549   -3.0621    0.1682 H       1  UNL1        0.0691
     36 H          -0.5986    2.5784   -0.0795 H       1  UNL1        0.2922
     37 H          -3.3534    0.3668    0.0402 H       1  UNL1        0.0691
     38 H           3.0168   -2.4957    1.9115 H       1  UNL1        0.0623
     39 H           5.0424   -1.0604   -1.6094 H       1  UNL1        0.0623
     40 H           5.0852   -3.6028    2.6524 H       1  UNL1        0.0654
     41 H           7.1218   -2.1622   -0.8520 H       1  UNL1        0.0654
     42 H          -4.8978   -1.2509   -0.4230 H       1  UNL1        0.1084
     43 H          -6.5790   -2.8298    0.4348 H       1  UNL1        0.0683
     44 H           7.2125   -3.9755    2.2230 H       1  UNL1        0.2921
     45 H          -3.3829   -2.2891    2.7758 H       1  UNL1        0.0647
     46 H          -4.4616   -4.3381   -0.7781 H       1  UNL1        0.2102
     47 H          -4.2593   -4.4891    1.5587 H       1  UNL1        0.0648
     48 H          -5.0018   -3.8406    3.7855 H       1  UNL1        0.0647
     49 H          -4.3782   -1.6161    4.9964 H       1  UNL1        0.0584
     50 H          -5.6048   -0.6610    4.1373 H       1  UNL1        0.0584
     51 H          -7.0109   -4.6791    2.1549 H       1  UNL1        0.2100
     52 H          -6.8541   -2.0114    2.6629 H       1  UNL1        0.2100
     53 H          -2.7803   -0.3056    3.8795 H       1  UNL1        0.2095
@<TRIPOS>BOND
     1     1     2    2
     2     2     3    1
     3     2     4    1
     4     3     5   ar
     5     3     6   ar
     6     4     7    1
     7     5     8    1
     8     5     9   ar
     9     6    10    1
    10     6    11   ar
    11     7    12    1
    12     9    13   ar
    13    12    14   ar
    14    12    15   ar
    15    13    16    1
    16    14    17   ar
    17    15    18   ar
    18    16    19    1
    19    17    20   ar
    20    19    21    1
    21    19    22    1
    22    20    23    1
    23    21    24    1
    24    22    25    1
    25    22    26    1
    26    24    27    1
    27    24    28    1
    28    26    29    1
    29    27    30    1
    30    28    31    1
    31     7     8    1
    32    11    13   ar
    33    18    20   ar
    34    26    27    1
    35     4    32    1
    36     4    33    1
    37     7    34    1
    38     9    35    1
    39    10    36    1
    40    11    37    1
    41    14    38    1
    42    15    39    1
    43    17    40    1
    44    18    41    1
    45    19    42    1
    46    22    43    1
    47    23    44    1
    48    24    45    1
    49    25    46    1
    50    26    47    1
    51    27    48    1
    52    28    49    1
    53    28    50    1
    54    29    51    1
    55    30    52    1
    56    31    53    1
@<TRIPOS>MOLECULE
104
 36 38 0 0 0
SMALL
GASTEIGER

@<TRIPOS>ATOM
      1 O           2.6706    0.8814    2.6468 O.2     1  UNL1       -0.2876
      2 C           3.2944    0.4461    1.6985 C.2     1  UNL1        0.1817
      3 C           4.7131    0.3923    1.6815 C.2     1  UNL1       -0.0003
      4 C           2.6899   -0.4790    0.8282 C.2     1  UNL1       -0.0178
      5 C           5.3085   -0.2126    0.6280 C.2     1  UNL1       -0.0131
      6 C           5.4354    0.9418    2.9070 C.3     1  UNL1       -0.0360
      7 C           3.4064   -0.9356   -0.1981 C.2     1  UNL1       -0.0704
      8 C           4.5768   -0.2903   -0.5589 C.3     1  UNL1        0.0114
      9 C           6.7899   -0.6215    0.6541 C.3     1  UNL1        0.1291
     10 C           5.3052   -0.8817   -1.7762 C.3     1  UNL1       -0.0399
     11 C           4.3528    1.0431   -1.2857 C.3     1  UNL1       -0.0522
     12 O           7.1565   -1.1635    1.9487 O.3     1  UNL1       -0.4564
     13 C           7.1904   -1.7449   -0.3424 C.3     1  UNL1        0.0128
     14 C           6.0823   -2.1327   -1.3497 C.3     1  UNL1       -0.0447
     15 C           7.7070   -2.3878    1.9151 C.2     1  UNL1        0.3109
     16 C           7.6081   -2.9500    0.5248 C.3     1  UNL1        0.0601
     17 O           8.0382   -3.0173    2.8986 O.2     1  UNL1       -0.2505
     18 C           8.9328   -3.5889    0.0599 C.3     1  UNL1       -0.0519
     19 H           1.6935   -0.8666    1.0271 H       1  UNL1        0.0653
     20 H           5.3118    0.2725    3.7612 H       1  UNL1        0.0279
     21 H           5.0314    1.9191    3.1813 H       1  UNL1        0.0279
     22 H           6.5019    1.0924    2.7346 H       1  UNL1        0.0279
     23 H           2.9736   -1.6885   -0.8530 H       1  UNL1        0.0582
     24 H           7.4096    0.2607    0.4692 H       1  UNL1        0.0785
     25 H           6.0443   -0.2206   -2.2466 H       1  UNL1        0.0277
     26 H           4.5984   -1.1785   -2.5581 H       1  UNL1        0.0277
     27 H           5.2755    1.6181   -1.4144 H       1  UNL1        0.0241
     28 H           3.6966    1.6900   -0.6988 H       1  UNL1        0.0241
     29 H           3.8548    0.9472   -2.2574 H       1  UNL1        0.0241
     30 H           8.0544   -1.3769   -0.9026 H       1  UNL1        0.0348
     31 H           6.5309   -2.6137   -2.2225 H       1  UNL1        0.0270
     32 H           5.3819   -2.8463   -0.9090 H       1  UNL1        0.0270
     33 H           6.8246   -3.7117    0.5358 H       1  UNL1        0.0415
     34 H           9.7532   -2.8698    0.1177 H       1  UNL1        0.0238
     35 H           8.8472   -3.9389   -0.9713 H       1  UNL1        0.0238
     36 H           9.1822   -4.4454    0.6908 H       1  UNL1        0.0238
@<TRIPOS>BOND
     1     1     2    2
     2     2     3    1
     3     2     4    1
     4     3     5    2
     5     3     6    1
     6     4     7    2
     7     5     8    1
     8     5     9    1
     9     8    10    1
    10     8    11    1
    11     9    12    1
    12     9    13    1
    13    10    14    1
    14    12    15    1
    15    13    16    1
    16    15    17    2
    17    16    18    1
    18     7     8    1
    19    13    14    1
    20    15    16    1
    21     4    19    1
    22     6    20    1
    23     6    21    1
    24     6    22    1
    25     7    23    1
    26     9    24    1
    27    10    25    1
    28    10    26    1
    29    11    27    1
    30    11    28    1
    31    11    29    1
    32    13    30    1
    33    14    31    1
    34    14    32    1
    35    16    33    1
    36    18    34    1
    37    18    35    1
    38    18    36    1
@<TRIPOS>MOLECULE
105
 28 30 0 0 0
SMALL
GASTEIGER

@<TRIPOS>ATOM
      1 O          -4.2400   -0.9434   -0.0069 O.2     1  UNL1       -0.2452
      2 C          -3.1908   -0.3346    0.0047 C.ar    1  UNL1        0.3373
      3 O          -2.0030   -0.9766   -0.0423 O.2     1  UNL1       -0.4182
      4 C          -3.0896    1.1252    0.0636 C.ar    1  UNL1        0.0237
      5 C          -0.7466   -0.3909   -0.0103 C.ar    1  UNL1        0.1876
      6 C          -1.8228    1.7940    0.0595 C.ar    1  UNL1       -0.0406
      7 C           0.3746   -1.3109   -0.0133 C.ar    1  UNL1        0.2063
      8 C          -0.6402    1.0578    0.0152 C.ar    1  UNL1        0.0637
      9 O           0.5419   -2.6841   -0.0047 O.3     1  UNL1       -0.4884
     10 C           1.6716   -0.6652   -0.0330 C.ar    1  UNL1        0.1834
     11 C           0.6573    1.6021    0.0001 C.ar    1  UNL1        0.1417
     12 C          -0.5984   -3.5695    0.0036 C.3     1  UNL1        0.0791
     13 O           2.8982   -1.3012   -0.0335 O.2     1  UNL1       -0.4590
     14 C           1.7714    0.6908   -0.0249 C.ar    1  UNL1        0.0662
     15 O           1.0723    2.9325    0.0064 O.3     1  UNL1       -0.4937
     16 C           3.7616   -0.2106   -0.0249 C.ar    1  UNL1        0.0934
     17 C           3.1475    1.0210   -0.0176 C.ar    1  UNL1       -0.0125
     18 C           0.2594    4.1244   -0.0434 C.3     1  UNL1        0.0788
     19 H          -4.0339    1.6590    0.1017 H       1  UNL1        0.0689
     20 H          -1.8830    2.8715    0.0933 H       1  UNL1        0.0628
     21 H          -0.2459   -4.6039    0.0068 H       1  UNL1        0.0660
     22 H          -1.2036   -3.3909   -0.8896 H       1  UNL1        0.0660
     23 H          -1.1971   -3.3825    0.8995 H       1  UNL1        0.0660
     24 H           4.8101   -0.4848   -0.0204 H       1  UNL1        0.1030
     25 H           3.5964    2.0085   -0.0039 H       1  UNL1        0.0656
     26 H           0.9210    4.9939   -0.0860 H       1  UNL1        0.0660
     27 H          -0.3521    4.1898    0.8605 H       1  UNL1        0.0660
     28 H          -0.3659    4.1081   -0.9401 H       1  UNL1        0.0660
@<TRIPOS>BOND
     1     1     2    2
     2     2     3   ar
     3     2     4   ar
     4     3     5   ar
     5     4     6   ar
     6     5     7   ar
     7     5     8   ar
     8     7     9    1
     9     7    10   ar
    10     8    11   ar
    11     9    12    1
    12    10    13   ar
    13    10    14   ar
    14    11    15    1
    15    13    16   ar
    16    14    17   ar
    17    15    18    1
    18     6     8   ar
    19    11    14   ar
    20    16    17   ar
    21     4    19    1
    22     6    20    1
    23    12    21    1
    24    12    22    1
    25    12    23    1
    26    16    24    1
    27    17    25    1
    28    18    26    1
    29    18    27    1
    30    18    28    1
@<TRIPOS>MOLECULE
106
 52 54 0 0 0
SMALL
GASTEIGER

@<TRIPOS>ATOM
      1 O           3.1462   -2.0905   -1.7088 O.2     1  UNL1       -0.2920
      2 C           2.7380   -1.0327   -2.1460 C.2     1  UNL1        0.1646
      3 C           2.0737   -0.9826   -3.5081 C.ar    1  UNL1        0.0174
      4 C           2.9548    0.2202   -1.2998 C.3     1  UNL1        0.0261
      5 C           1.9630   -2.1708   -4.2447 C.ar    1  UNL1       -0.0513
      6 C           1.5612    0.1947   -4.0754 C.ar    1  UNL1       -0.0513
      7 C           4.4671    0.4772   -1.0003 C.3     1  UNL1        0.0174
      8 C           1.3638   -2.1851   -5.5039 C.ar    1  UNL1       -0.0611
      9 C           0.9597    0.1795   -5.3332 C.ar    1  UNL1       -0.0611
     10 N           4.7375    1.7035   -0.1680 N.3     1  UNL1       -0.2990
     11 C           5.3163    0.5019   -2.2936 C.3     1  UNL1       -0.0369
     12 C           0.8605   -1.0096   -6.0493 C.ar    1  UNL1       -0.0617
     13 C           4.7073    3.0402   -0.8679 C.3     1  UNL1        0.0131
     14 C           3.9969    1.6611    1.1229 C.3     1  UNL1       -0.0122
     15 C           5.0359    1.7772   -3.0970 C.3     1  UNL1       -0.0502
     16 C           5.4299    2.9888   -2.2466 C.3     1  UNL1       -0.0372
     17 C           5.3969    4.1490    0.0023 C.3     1  UNL1       -0.0070
     18 C           5.4350    5.5556   -0.6621 C.3     1  UNL1        0.0816
     19 O           4.0879    5.9936   -0.8614 O.3     1  UNL1       -0.3871
     20 C           6.2303    6.6425    0.0679 C.ar    1  UNL1       -0.0191
     21 C           6.8190    6.4651    1.3272 C.ar    1  UNL1       -0.0561
     22 C           6.4203    7.8616   -0.5930 C.ar    1  UNL1       -0.0561
     23 C           7.5814    7.4821    1.9021 C.ar    1  UNL1       -0.0614
     24 C           7.1764    8.8795   -0.0196 C.ar    1  UNL1       -0.0614
     25 C           7.7622    8.6905    1.2301 C.ar    1  UNL1       -0.0617
     26 H           2.4212    0.0480   -0.3638 H       1  UNL1        0.0360
     27 H           2.5083    1.1108   -1.7330 H       1  UNL1        0.0360
     28 H           2.3498   -3.1040   -3.8437 H       1  UNL1        0.0624
     29 H           1.6087    1.1470   -3.5609 H       1  UNL1        0.0624
     30 H           4.8130   -0.3848   -0.4217 H       1  UNL1        0.0467
     31 H           1.2908   -3.1167   -6.0594 H       1  UNL1        0.0618
     32 H           0.5658    1.0989   -5.7566 H       1  UNL1        0.0618
     33 H           5.1273   -0.3764   -2.9144 H       1  UNL1        0.0280
     34 H           6.3758    0.4687   -2.0273 H       1  UNL1        0.0280
     35 H           0.3913   -1.0193   -7.0307 H       1  UNL1        0.0618
     36 H           3.6634    3.3174   -1.0405 H       1  UNL1        0.0463
     37 H           4.1888    0.7090    1.6256 H       1  UNL1        0.0391
     38 H           2.9218    1.7613    0.9525 H       1  UNL1        0.0391
     39 H           4.3112    2.4567    1.7984 H       1  UNL1        0.0391
     40 H           3.9840    1.8428   -3.3795 H       1  UNL1        0.0266
     41 H           5.6215    1.7717   -4.0194 H       1  UNL1        0.0266
     42 H           6.5125    2.9699   -2.0928 H       1  UNL1        0.0280
     43 H           5.1964    3.8826   -2.8275 H       1  UNL1        0.0280
     44 H           6.4200    3.8320    0.2219 H       1  UNL1        0.0309
     45 H           4.8829    4.2581    0.9582 H       1  UNL1        0.0309
     46 H           5.9072    5.4626   -1.6414 H       1  UNL1        0.0644
     47 H           3.6050    5.8824   -0.0231 H       1  UNL1        0.2102
     48 H           6.7042    5.5317    1.8713 H       1  UNL1        0.0621
     49 H           5.9782    8.0178   -1.5749 H       1  UNL1        0.0621
     50 H           8.0430    7.3333    2.8745 H       1  UNL1        0.0618
     51 H           7.3175    9.8185   -0.5481 H       1  UNL1        0.0618
     52 H           8.3604    9.4802    1.6777 H       1  UNL1        0.0618
@<TRIPOS>BOND
     1     1     2    2
     2     2     3    1
     3     2     4    1
     4     3     5   ar
     5     3     6   ar
     6     4     7    1
     7     5     8   ar
     8     6     9   ar
     9     7    10    1
    10     7    11    1
    11     8    12   ar
    12    10    13    1
    13    10    14    1
    14    11    15    1
    15    13    16    1
    16    13    17    1
    17    17    18    1
    18    18    19    1
    19    18    20    1
    20    20    21   ar
    21    20    22   ar
    22    21    23   ar
    23    22    24   ar
    24    23    25   ar
    25     9    12   ar
    26    15    16    1
    27    24    25   ar
    28     4    26    1
    29     4    27    1
    30     5    28    1
    31     6    29    1
    32     7    30    1
    33     8    31    1
    34     9    32    1
    35    11    33    1
    36    11    34    1
    37    12    35    1
    38    13    36    1
    39    14    37    1
    40    14    38    1
    41    14    39    1
    42    15    40    1
    43    15    41    1
    44    16    42    1
    45    16    43    1
    46    17    44    1
    47    17    45    1
    48    18    46    1
    49    19    47    1
    50    21    48    1
    51    22    49    1
    52    23    50    1
    53    24    51    1
    54    25    52    1
@<TRIPOS>MOLECULE
110
 51 54 0 0 0
SMALL
GASTEIGER

@<TRIPOS>ATOM
      1 O          -1.5528    2.2395   -0.0565 O.2     1  UNL1       -0.2869
      2 C          -1.4740    1.0259   -0.0336 C.ar    1  UNL1        0.1966
      3 C          -0.2178    0.2814    0.1319 C.ar    1  UNL1        0.1055
      4 C          -2.6487    0.1311   -0.1560 C.ar    1  UNL1        0.0288
      5 C          -0.3337   -1.0935    0.0964 C.ar    1  UNL1        0.1462
      6 C           1.0819    0.8603    0.3709 C.ar    1  UNL1        0.1347
      7 C          -2.5331   -0.9907   -0.1483 C.ar    1  UNL1        0.1392
      8 O          -1.6061   -1.6305   -0.0877 O.2     1  UNL1       -0.4544
      9 C           0.8665   -1.9118    0.1519 C.ar    1  UNL1        0.0235
     10 O           1.2338    2.2095    0.4476 O.3     1  UNL1       -0.5058
     11 C           2.2055    0.0600    0.5071 C.ar    1  UNL1        0.0226
     12 C          -3.8390   -1.7382   -0.0860 C.ar    1  UNL1        0.0176
     13 C           2.1181   -1.3273    0.3500 C.ar    1  UNL1        0.1310
     14 C          -4.5238   -2.0891   -1.2646 C.ar    1  UNL1       -0.0476
     15 C          -4.4255   -2.0503    1.1537 C.ar    1  UNL1       -0.0476
     16 O           3.2619   -2.1178    0.3036 O.3     1  UNL1       -0.4606
     17 C          -5.7626   -2.7308   -1.1988 C.ar    1  UNL1       -0.0195
     18 C          -5.6640   -2.6898    1.2071 C.ar    1  UNL1       -0.0195
     19 C           4.6013   -1.5375    0.2257 C.3     1  UNL1        0.2308
     20 C          -6.3360   -3.0291    0.0363 C.ar    1  UNL1        0.1169
     21 O           4.7134   -0.6157   -0.8941 O.3     1  UNL1       -0.3313
     22 C           5.6713   -2.6318    0.0324 C.3     1  UNL1        0.1454
     23 O          -7.5534   -3.6433    0.1176 O.3     1  UNL1       -0.5068
     24 C           4.4338   -1.1875   -2.1976 C.3     1  UNL1        0.1140
     25 O           5.6461   -3.5481    1.1281 O.3     1  UNL1       -0.3829
     26 C           5.4458   -3.3625   -1.3164 C.3     1  UNL1        0.1152
     27 C           5.4316   -2.3459   -2.4832 C.3     1  UNL1        0.1120
     28 C           4.4434   -0.0508   -3.2495 C.3     1  UNL1        0.0731
     29 O           6.5215   -4.2693   -1.5622 O.3     1  UNL1       -0.3864
     30 O           6.7722   -1.8649   -2.6589 O.3     1  UNL1       -0.3865
     31 O           5.6815    0.6625   -3.2560 O.3     1  UNL1       -0.3924
     32 H          -3.5921    0.6660   -0.2126 H       1  UNL1        0.0693
     33 H           0.7870   -2.9879    0.0085 H       1  UNL1        0.0691
     34 H           0.3630    2.6221    0.2608 H       1  UNL1        0.2922
     35 H           3.1573    0.5444    0.6999 H       1  UNL1        0.0691
     36 H          -4.1000   -1.8549   -2.2380 H       1  UNL1        0.0626
     37 H          -3.9280   -1.7864    2.0830 H       1  UNL1        0.0626
     38 H          -6.2829   -2.9888   -2.1184 H       1  UNL1        0.0654
     39 H          -6.1115   -2.9202    2.1710 H       1  UNL1        0.0654
     40 H           4.7890   -0.9768    1.1550 H       1  UNL1        0.1084
     41 H           6.6501   -2.1456    0.0177 H       1  UNL1        0.0683
     42 H          -7.9152   -3.8323   -0.7677 H       1  UNL1        0.2921
     43 H           3.4214   -1.6030   -2.1772 H       1  UNL1        0.0647
     44 H           4.8760   -4.1271    1.0158 H       1  UNL1        0.2102
     45 H           4.4985   -3.9086   -1.2845 H       1  UNL1        0.0648
     46 H           5.1208   -2.8581   -3.3978 H       1  UNL1        0.0647
     47 H           3.6473    0.6598   -3.0098 H       1  UNL1        0.0584
     48 H           4.2540   -0.4626   -4.2436 H       1  UNL1        0.0584
     49 H           7.2054   -3.7181   -2.0033 H       1  UNL1        0.2100
     50 H           6.7427   -0.8909   -2.6321 H       1  UNL1        0.2100
     51 H           5.7475    1.1439   -2.4140 H       1  UNL1        0.2095
@<TRIPOS>BOND
     1     1     2    2
     2     2     3   ar
     3     2     4   ar
     4     3     5   ar
     5     3     6   ar
     6     4     7   ar
     7     5     8   ar
     8     5     9   ar
     9     6    10    1
    10     6    11   ar
    11     7    12    1
    12     9    13   ar
    13    12    14   ar
    14    12    15   ar
    15    13    16    1
    16    14    17   ar
    17    15    18   ar
    18    16    19    1
    19    17    20   ar
    20    19    21    1
    21    19    22    1
    22    20    23    1
    23    21    24    1
    24    22    25    1
    25    22    26    1
    26    24    27    1
    27    24    28    1
    28    26    29    1
    29    27    30    1
    30    28    31    1
    31     7     8   ar
    32    11    13   ar
    33    18    20   ar
    34    26    27    1
    35     4    32    1
    36     9    33    1
    37    10    34    1
    38    11    35    1
    39    14    36    1
    40    15    37    1
    41    17    38    1
    42    18    39    1
    43    19    40    1
    44    22    41    1
    45    23    42    1
    46    24    43    1
    47    25    44    1
    48    26    45    1
    49    27    46    1
    50    28    47    1
    51    28    48    1
    52    29    49    1
    53    30    50    1
    54    31    51    1
@<TRIPOS>MOLECULE
111
 24 24 0 0 0
SMALL
GASTEIGER

@<TRIPOS>ATOM
      1 O           1.5959    1.2526    0.8988 O.2     1  UNL1       -0.2458
      2 C           2.6779    0.8473    0.5299 C.2     1  UNL1        0.3296
      3 O           3.2962    1.3943   -0.4871 O.3     1  UNL1       -0.4775
      4 C           3.3750   -0.2538    1.2433 C.2     1  UNL1        0.0229
      5 C           4.5196   -0.8881    0.9394 C.2     1  UNL1       -0.0477
      6 C           5.1703   -1.9535    1.7348 C.ar    1  UNL1       -0.0211
      7 C           4.7462   -3.2845    1.6603 C.ar    1  UNL1       -0.0094
      8 C           6.2053   -1.6161    2.6029 C.ar    1  UNL1       -0.0509
      9 C           5.3443   -4.2745    2.4503 C.ar    1  UNL1        0.1590
     10 C           6.8064   -2.5928    3.3904 C.ar    1  UNL1       -0.0158
     11 O           4.8909   -5.5635    2.3456 O.3     1  UNL1       -0.5033
     12 C           6.3872   -3.9210    3.3305 C.ar    1  UNL1        0.1613
     13 O           7.0588   -4.7940    4.1795 O.3     1  UNL1       -0.4915
     14 C           6.7531   -6.1938    4.3839 C.3     1  UNL1        0.0790
     15 H           4.1933    1.0370   -0.5599 H       1  UNL1        0.2954
     16 H           2.8727   -0.5951    2.1485 H       1  UNL1        0.0689
     17 H           5.0590   -0.5980    0.0389 H       1  UNL1        0.0626
     18 H           3.9360   -3.5498    0.9849 H       1  UNL1        0.0661
     19 H           6.5436   -0.5849    2.6765 H       1  UNL1        0.0625
     20 H           7.6100   -2.3146    4.0685 H       1  UNL1        0.0655
     21 H           4.1554   -5.6405    1.7155 H       1  UNL1        0.2923
     22 H           7.4242   -6.5937    5.1482 H       1  UNL1        0.0660
     23 H           6.9026   -6.7409    3.4492 H       1  UNL1        0.0660
     24 H           5.7178   -6.2975    4.7199 H       1  UNL1        0.0660
@<TRIPOS>BOND
     1     1     2    2
     2     2     3    1
     3     2     4    1
     4     4     5    2
     5     5     6    1
     6     6     7   ar
     7     6     8   ar
     8     7     9   ar
     9     8    10   ar
    10     9    11    1
    11     9    12   ar
    12    12    13    1
    13    13    14    1
    14    10    12   ar
    15     3    15    1
    16     4    16    1
    17     5    17    1
    18     7    18    1
    19     8    19    1
    20    10    20    1
    21    11    21    1
    22    14    22    1
    23    14    23    1
    24    14    24    1
@<TRIPOS>MOLECULE
112
 35 36 0 0 0
SMALL
GASTEIGER

@<TRIPOS>ATOM
      1 O           0.6799    1.2769   -0.2231 O.3     1  UNL1       -0.3313
      2 C           1.3882    0.1450    0.3441 C.3     1  UNL1        0.2308
      3 C          -0.7658    1.2652   -0.0679 C.3     1  UNL1        0.1140
      4 O           1.2182    0.0616    1.7824 O.3     1  UNL1       -0.4608
      5 C           0.8742   -1.1632   -0.3024 C.3     1  UNL1        0.1454
      6 C          -1.3588    0.0099   -0.7602 C.3     1  UNL1        0.1120
      7 C          -1.3196    2.5726   -0.6794 C.3     1  UNL1        0.0731
      8 C           1.7602    0.9523    2.6903 C.ar    1  UNL1        0.1242
      9 O           1.4765   -2.2817    0.3642 O.3     1  UNL1       -0.3829
     10 C          -0.6735   -1.2836   -0.2689 C.3     1  UNL1        0.1152
     11 O          -2.7539   -0.0981   -0.4590 O.3     1  UNL1       -0.3865
     12 O          -0.9307    2.6971   -2.0528 O.3     1  UNL1       -0.3924
     13 C           2.5330    2.0530    2.3054 C.ar    1  UNL1       -0.0164
     14 C           1.5353    0.7067    4.0443 C.ar    1  UNL1       -0.0164
     15 O          -1.1526   -1.6064    1.0432 O.3     1  UNL1       -0.3864
     16 C           3.0793    2.8934    3.2746 C.ar    1  UNL1       -0.0167
     17 C           2.0819    1.5463    5.0115 C.ar    1  UNL1       -0.0167
     18 C           2.8567    2.6385    4.6275 C.ar    1  UNL1        0.1171
     19 O           3.3957    3.4506    5.5795 O.3     1  UNL1       -0.5068
     20 H           2.4618    0.2695    0.1350 H       1  UNL1        0.1084
     21 H          -1.0010    1.2401    1.0008 H       1  UNL1        0.0647
     22 H           1.1907   -1.1710   -1.3491 H       1  UNL1        0.0683
     23 H          -1.2275    0.0966   -1.8424 H       1  UNL1        0.0647
     24 H          -0.9295    3.4251   -0.1173 H       1  UNL1        0.0584
     25 H          -2.4106    2.5811   -0.6079 H       1  UNL1        0.0584
     26 H           1.5947   -2.0402    1.3071 H       1  UNL1        0.2102
     27 H          -0.9623   -2.0984   -0.9385 H       1  UNL1        0.0648
     28 H          -2.8072   -0.6161    0.3737 H       1  UNL1        0.2100
     29 H           0.0391    2.6173   -2.1057 H       1  UNL1        0.2095
     30 H           2.7214    2.2674    1.2570 H       1  UNL1        0.0655
     31 H           0.9361   -0.1480    4.3482 H       1  UNL1        0.0655
     32 H          -0.6653   -2.3921    1.3282 H       1  UNL1        0.2100
     33 H           3.6832    3.7439    2.9689 H       1  UNL1        0.0655
     34 H           1.9066    1.3447    6.0657 H       1  UNL1        0.0655
     35 H           3.9050    4.1663    5.1601 H       1  UNL1        0.2921
@<TRIPOS>BOND
     1     1     2    1
     2     1     3    1
     3     2     4    1
     4     2     5    1
     5     3     6    1
     6     3     7    1
     7     4     8    1
     8     5     9    1
     9     5    10    1
    10     6    11    1
    11     7    12    1
    12     8    13   ar
    13     8    14   ar
    14    10    15    1
    15    13    16   ar
    16    14    17   ar
    17    16    18   ar
    18    18    19    1
    19     6    10    1
    20    17    18   ar
    21     2    20    1
    22     3    21    1
    23     5    22    1
    24     6    23    1
    25     7    24    1
    26     7    25    1
    27     9    26    1
    28    10    27    1
    29    11    28    1
    30    12    29    1
    31    13    30    1
    32    14    31    1
    33    15    32    1
    34    16    33    1
    35    17    34    1
    36    19    35    1
@<TRIPOS>MOLECULE
113
 52 55 0 0 0
SMALL
GASTEIGER

@<TRIPOS>ATOM
      1 O          -1.6566    2.1330    0.0201 O.2     1  UNL1       -0.2869
      2 C          -1.5296    0.9234    0.0303 C.ar    1  UNL1        0.1966
      3 C          -0.2435    0.2221    0.1987 C.ar    1  UNL1        0.1055
      4 C          -2.6625   -0.0118   -0.1578 C.ar    1  UNL1        0.0288
      5 C          -0.3147   -1.1548    0.1552 C.ar    1  UNL1        0.1462
      6 C           1.0535    0.8343    0.3894 C.ar    1  UNL1        0.1347
      7 C          -2.5059   -1.1273   -0.1398 C.ar    1  UNL1        0.1393
      8 O          -1.5669   -1.7384   -0.0293 O.2     1  UNL1       -0.4544
      9 C           0.9025   -1.9384    0.1814 C.ar    1  UNL1        0.0235
     10 O           1.1920    2.1871    0.4277 O.3     1  UNL1       -0.5058
     11 C           2.2055    0.0638    0.4731 C.ar    1  UNL1        0.0226
     12 C          -3.7786   -1.9232   -0.0714 C.ar    1  UNL1        0.0211
     13 C           2.1489   -1.3239    0.3335 C.ar    1  UNL1        0.1310
     14 C          -4.3443   -2.2711    1.1703 C.ar    1  UNL1       -0.0059
     15 C          -4.4585   -2.2724   -1.2533 C.ar    1  UNL1       -0.0474
     16 O           3.3057   -2.0968    0.2722 O.3     1  UNL1       -0.4606
     17 C          -5.5620   -2.9529    1.2183 C.ar    1  UNL1        0.1589
     18 C          -5.6707   -2.9583   -1.1917 C.ar    1  UNL1       -0.0159
     19 C           4.6442   -1.5137    0.1789 C.3     1  UNL1        0.2308
     20 O          -6.1440   -3.2813    2.4105 O.3     1  UNL1       -0.5033
     21 C          -6.2204   -3.2961    0.0415 C.ar    1  UNL1        0.1583
     22 O           4.7483   -0.6026   -0.9509 O.3     1  UNL1       -0.3313
     23 C           5.7140   -2.6128   -0.0145 C.3     1  UNL1        0.1454
     24 O          -7.4110   -3.9523    0.1246 O.3     1  UNL1       -0.5033
     25 C           4.4451   -1.1868   -2.2446 C.3     1  UNL1        0.1140
     26 O           5.7064   -3.5268    1.0904 O.3     1  UNL1       -0.3829
     27 C           5.4905   -3.3461   -1.3622 C.3     1  UNL1        0.1152
     28 C           5.4400   -2.3416   -2.5417 C.3     1  UNL1        0.1120
     29 C           4.4176   -0.0664   -3.3147 C.3     1  UNL1        0.0731
     30 O           6.5834   -4.2252   -1.6184 O.3     1  UNL1       -0.3864
     31 O           6.7649   -1.8456   -2.7815 O.3     1  UNL1       -0.3865
     32 O           5.6228    0.7115   -3.3335 O.3     1  UNL1       -0.3924
     33 H          -3.6238    0.4713   -0.3162 H       1  UNL1        0.0693
     34 H           0.8358   -3.0148    0.0461 H       1  UNL1        0.0691
     35 H           0.3243    2.5774    0.2136 H       1  UNL1        0.2922
     36 H           3.1539    0.5754    0.6095 H       1  UNL1        0.0691
     37 H          -3.8438   -1.9962    2.0955 H       1  UNL1        0.0662
     38 H          -4.0504   -2.0033   -2.2246 H       1  UNL1        0.0626
     39 H          -6.1927   -3.2216   -2.1089 H       1  UNL1        0.0655
     40 H           4.8428   -0.9455    1.1015 H       1  UNL1        0.1084
     41 H          -5.6100   -2.9511    3.1489 H       1  UNL1        0.2923
     42 H           6.6935   -2.1266   -0.0397 H       1  UNL1        0.0683
     43 H          -7.5943   -4.0771    1.0826 H       1  UNL1        0.2923
     44 H           3.4394   -1.6143   -2.1968 H       1  UNL1        0.0647
     45 H           4.8830   -4.0450    1.0825 H       1  UNL1        0.2102
     46 H           4.5574   -3.9145   -1.3181 H       1  UNL1        0.0648
     47 H           5.1049   -2.8735   -3.4367 H       1  UNL1        0.0647
     48 H           3.5767    0.6000   -3.1032 H       1  UNL1        0.0584
     49 H           4.2612   -0.5116   -4.3009 H       1  UNL1        0.0584
     50 H           7.2315   -3.6570   -2.0892 H       1  UNL1        0.2100
     51 H           6.8149   -0.9448   -2.4129 H       1  UNL1        0.2100
     52 H           5.7556    1.1343   -2.4657 H       1  UNL1        0.2095
@<TRIPOS>BOND
     1     1     2    2
     2     2     3   ar
     3     2     4   ar
     4     3     5   ar
     5     3     6   ar
     6     4     7   ar
     7     5     8   ar
     8     5     9   ar
     9     6    10    1
    10     6    11   ar
    11     7    12    1
    12     9    13   ar
    13    12    14   ar
    14    12    15   ar
    15    13    16    1
    16    14    17   ar
    17    15    18   ar
    18    16    19    1
    19    17    20    1
    20    17    21   ar
    21    19    22    1
    22    19    23    1
    23    21    24    1
    24    22    25    1
    25    23    26    1
    26    23    27    1
    27    25    28    1
    28    25    29    1
    29    27    30    1
    30    28    31    1
    31    29    32    1
    32     7     8   ar
    33    11    13   ar
    34    18    21   ar
    35    27    28    1
    36     4    33    1
    37     9    34    1
    38    10    35    1
    39    11    36    1
    40    14    37    1
    41    15    38    1
    42    18    39    1
    43    19    40    1
    44    20    41    1
    45    23    42    1
    46    24    43    1
    47    25    44    1
    48    26    45    1
    49    27    46    1
    50    28    47    1
    51    29    48    1
    52    29    49    1
    53    30    50    1
    54    31    51    1
    55    32    52    1
@<TRIPOS>MOLECULE
114
 44 46 0 0 0
SMALL
GASTEIGER

@<TRIPOS>ATOM
      1 O           2.7587    0.9837   -0.6970 O.2     1  UNL1       -0.2501
      2 C           2.2351   -0.0468   -0.3128 C.2     1  UNL1        0.3171
      3 O           2.8618   -0.9842    0.4404 O.3     1  UNL1       -0.4608
      4 C           0.7717   -0.3789   -0.5752 C.3     1  UNL1        0.1044
      5 C           4.2793   -0.8141    0.7170 C.3     1  UNL1        0.1059
      6 C          -0.1203   -0.0369    0.6175 C.ar    1  UNL1       -0.0315
      7 C           0.2424    0.3373   -1.8417 C.3     1  UNL1        0.0612
      8 C           5.1331   -1.2394   -0.5107 C.3     1  UNL1        0.0000
      9 C           4.6925   -1.6078    1.9837 C.3     1  UNL1        0.0000
     10 C           0.0759    1.1299    1.3650 C.ar    1  UNL1       -0.0577
     11 C          -1.1951   -0.8732    0.9342 C.ar    1  UNL1       -0.0577
     12 O           0.9388   -0.0998   -3.0133 O.3     1  UNL1       -0.3939
     13 C           6.6419   -1.3996   -0.1423 C.3     1  UNL1        0.0138
     14 C           6.2469   -1.7279    2.1081 C.3     1  UNL1        0.0138
     15 C          -0.7825    1.4456    2.4180 C.ar    1  UNL1       -0.0615
     16 C          -2.0560   -0.5538    1.9826 C.ar    1  UNL1       -0.0615
     17 N           6.8874   -0.7640    1.1762 N.3     1  UNL1       -0.2992
     18 C           7.0053   -2.8842    0.0994 C.3     1  UNL1       -0.0358
     19 C           6.7387   -3.1031    1.5999 C.3     1  UNL1       -0.0358
     20 C          -1.8494    0.6054    2.7260 C.ar    1  UNL1       -0.0617
     21 C           8.3114   -0.4705    1.4620 C.3     1  UNL1       -0.0122
     22 H           0.7107   -1.4563   -0.7513 H       1  UNL1        0.0485
     23 H           4.4726    0.2425    0.9271 H       1  UNL1        0.0735
     24 H           0.3582    1.4193   -1.7296 H       1  UNL1        0.0568
     25 H          -0.8212    0.1160   -1.9621 H       1  UNL1        0.0568
     26 H           5.0387   -0.4749   -1.2847 H       1  UNL1        0.0316
     27 H           4.7360   -2.1640   -0.9369 H       1  UNL1        0.0316
     28 H           4.2200   -2.5928    1.9817 H       1  UNL1        0.0316
     29 H           4.3066   -1.0788    2.8581 H       1  UNL1        0.0316
     30 H           0.8932    1.8068    1.1307 H       1  UNL1        0.0621
     31 H          -1.3746   -1.7757    0.3543 H       1  UNL1        0.0621
     32 H           1.8677    0.1911   -2.9397 H       1  UNL1        0.2094
     33 H           7.2631   -0.9661   -0.9315 H       1  UNL1        0.0464
     34 H           6.5501   -1.5599    3.1458 H       1  UNL1        0.0464
     35 H          -0.6227    2.3535    2.9946 H       1  UNL1        0.0618
     36 H          -2.8933   -1.2071    2.2164 H       1  UNL1        0.0618
     37 H           8.0640   -3.0471   -0.1122 H       1  UNL1        0.0281
     38 H           6.4281   -3.5707   -0.5244 H       1  UNL1        0.0281
     39 H           6.0158   -3.9041    1.7750 H       1  UNL1        0.0281
     40 H           7.6704   -3.3752    2.1024 H       1  UNL1        0.0281
     41 H          -2.5233    0.8567    3.5417 H       1  UNL1        0.0618
     42 H           8.6958    0.2295    0.7146 H       1  UNL1        0.0391
     43 H           8.9186   -1.3787    1.4410 H       1  UNL1        0.0391
     44 H           8.3981   -0.0075    2.4485 H       1  UNL1        0.0391
@<TRIPOS>BOND
     1     1     2    2
     2     2     3    1
     3     2     4    1
     4     3     5    1
     5     4     6    1
     6     4     7    1
     7     5     8    1
     8     5     9    1
     9     6    10   ar
    10     6    11   ar
    11     7    12    1
    12     8    13    1
    13     9    14    1
    14    10    15   ar
    15    11    16   ar
    16    13    17    1
    17    13    18    1
    18    14    19    1
    19    15    20   ar
    20    17    21    1
    21    14    17    1
    22    16    20   ar
    23    18    19    1
    24     4    22    1
    25     5    23    1
    26     7    24    1
    27     7    25    1
    28     8    26    1
    29     8    27    1
    30     9    28    1
    31     9    29    1
    32    10    30    1
    33    11    31    1
    34    12    32    1
    35    13    33    1
    36    14    34    1
    37    15    35    1
    38    16    36    1
    39    18    37    1
    40    18    38    1
    41    19    39    1
    42    19    40    1
    43    20    41    1
    44    21    42    1
    45    21    43    1
    46    21    44    1
@<TRIPOS>MOLECULE
115
 41 43 0 0 0
SMALL
GASTEIGER

@<TRIPOS>ATOM
      1 O           2.7149   -0.0117   -1.7907 O.2     1  UNL1       -0.2260
      2 C           2.1991    0.3924   -0.7683 C.2     1  UNL1        0.4053
      3 O           2.8453    0.6770    0.3846 O.3     1  UNL1       -0.4115
      4 N           0.8651    0.5530   -0.6537 N.am    1  UNL1       -0.2839
      5 C           4.2125    0.6469    0.5801 C.ar    1  UNL1        0.1336
      6 C           0.1653    0.9936    0.5593 C.3     1  UNL1        0.0032
      7 C           5.0976    1.1531   -0.3725 C.ar    1  UNL1       -0.0136
      8 C           4.6859    0.1556    1.7970 C.ar    1  UNL1       -0.0174
      9 C           6.5042    1.1785   -0.0740 C.ar    1  UNL1       -0.0139
     10 C           6.0917    0.0908    2.1114 C.ar    1  UNL1       -0.0369
     11 C           7.0111    0.7084    1.1919 C.ar    1  UNL1        0.0347
     12 C           7.5426    1.5363   -1.1034 C.3     1  UNL1        0.0279
     13 N           8.3613    0.8048    0.9682 N.pl3   1  UNL1       -0.3162
     14 C           8.7787    1.5755   -0.2071 C.3     1  UNL1        0.0860
     15 C           7.3731    2.9745   -1.6224 C.3     1  UNL1       -0.0277
     16 C           7.6137    0.4558   -2.2033 C.3     1  UNL1       -0.0525
     17 C           9.2185   -0.3163    1.3650 C.3     1  UNL1        0.0022
     18 N           9.0265    3.0210    0.0790 N.3     1  UNL1       -0.2867
     19 C           7.9068    3.8189   -0.4625 C.3     1  UNL1        0.0012
     20 C           9.3876    3.3865    1.4684 C.3     1  UNL1       -0.0111
     21 H           0.2928    0.3416   -1.4586 H       1  UNL1        0.1517
     22 H           0.6121    1.9227    0.9242 H       1  UNL1        0.0427
     23 H           0.2515    0.2205    1.3278 H       1  UNL1        0.0427
     24 H          -0.8885    1.1632    0.3285 H       1  UNL1        0.0427
     25 H           4.7269    1.5739   -1.3029 H       1  UNL1        0.0658
     26 H           3.9884   -0.2051    2.5483 H       1  UNL1        0.0655
     27 H           6.4411   -0.3671    3.0305 H       1  UNL1        0.0637
     28 H           9.6663    1.1401   -0.6916 H       1  UNL1        0.0680
     29 H           6.3416    3.2244   -1.8783 H       1  UNL1        0.0287
     30 H           8.0008    3.1309   -2.5038 H       1  UNL1        0.0287
     31 H           7.7476   -0.5350   -1.7615 H       1  UNL1        0.0239
     32 H           8.4554    0.6454   -2.8734 H       1  UNL1        0.0239
     33 H           6.6970    0.4467   -2.7966 H       1  UNL1        0.0239
     34 H           8.6980   -1.2618    1.1850 H       1  UNL1        0.0428
     35 H           9.4602   -0.2401    2.4278 H       1  UNL1        0.0428
     36 H          10.1488   -0.3186    0.7903 H       1  UNL1        0.0428
     37 H           7.1221    3.9257    0.2925 H       1  UNL1        0.0427
     38 H           8.2391    4.8059   -0.7954 H       1  UNL1        0.0427
     39 H          10.2443    2.7964    1.8021 H       1  UNL1        0.0391
     40 H           8.5423    3.2002    2.1388 H       1  UNL1        0.0391
     41 H           9.6444    4.4479    1.5183 H       1  UNL1        0.0391
@<TRIPOS>BOND
     1     1     2    2
     2     2     3    1
     3     2     4   am
     4     3     5    1
     5     4     6    1
     6     5     7   ar
     7     5     8   ar
     8     7     9   ar
     9     8    10   ar
    10     9    11   ar
    11     9    12    1
    12    11    13    1
    13    12    14    1
    14    12    15    1
    15    12    16    1
    16    13    17    1
    17    14    18    1
    18    15    19    1
    19    18    20    1
    20    10    11   ar
    21    13    14    1
    22    18    19    1
    23     4    21    1
    24     6    22    1
    25     6    23    1
    26     6    24    1
    27     7    25    1
    28     8    26    1
    29    10    27    1
    30    14    28    1
    31    15    29    1
    32    15    30    1
    33    16    31    1
    34    16    32    1
    35    16    33    1
    36    17    34    1
    37    17    35    1
    38    17    36    1
    39    19    37    1
    40    19    38    1
    41    20    39    1
    42    20    40    1
    43    20    41    1
@<TRIPOS>MOLECULE
116
 24 26 0 0 0
SMALL
GASTEIGER

@<TRIPOS>ATOM
      1 O          -4.0795   -1.1894    0.0565 O.2     1  UNL1       -0.2452
      2 C          -3.0557   -0.5379    0.0570 C.ar    1  UNL1        0.3372
      3 O          -1.8417   -1.1276   -0.0358 O.2     1  UNL1       -0.4219
      4 C          -3.0178    0.9259    0.1389 C.ar    1  UNL1        0.0237
      5 C          -0.6216   -0.4755   -0.0099 C.ar    1  UNL1        0.1461
      6 C          -1.7841    1.6555    0.0900 C.ar    1  UNL1       -0.0408
      7 C          -0.5731    0.9734   -0.0121 C.ar    1  UNL1        0.0600
      8 C           0.5436   -1.3213    0.0469 C.ar    1  UNL1        0.0245
      9 C           0.6978    1.5698   -0.1264 C.ar    1  UNL1        0.1414
     10 C           1.7801   -0.7015   -0.3524 C.ar    1  UNL1        0.1418
     11 O           1.0607    2.9148   -0.1497 O.3     1  UNL1       -0.4937
     12 C           1.8516    0.7184   -0.2925 C.ar    1  UNL1        0.0625
     13 O           3.0154   -1.2231   -0.0688 O.2     1  UNL1       -0.4627
     14 C           0.2018    4.0713   -0.0621 C.3     1  UNL1        0.0788
     15 C           3.2059    1.0625   -0.0050 C.ar    1  UNL1       -0.0126
     16 C           3.8630   -0.1438    0.0792 C.ar    1  UNL1        0.0933
     17 H          -3.9839    1.4148    0.2065 H       1  UNL1        0.0689
     18 H          -1.8912    2.7300    0.1001 H       1  UNL1        0.0628
     19 H           0.5685   -2.4065   -0.0106 H       1  UNL1        0.0692
     20 H           0.8245    4.9691   -0.1004 H       1  UNL1        0.0660
     21 H          -0.3424    4.0570    0.8864 H       1  UNL1        0.0660
     22 H          -0.4882    4.0805   -0.9098 H       1  UNL1        0.0660
     23 H           3.6025    2.0547    0.1815 H       1  UNL1        0.0656
     24 H           4.8910   -0.3999    0.3062 H       1  UNL1        0.1030
@<TRIPOS>BOND
     1     1     2    2
     2     2     3   ar
     3     2     4   ar
     4     3     5   ar
     5     4     6   ar
     6     5     7   ar
     7     5     8   ar
     8     7     9   ar
     9     8    10   ar
    10     9    11    1
    11     9    12   ar
    12    10    13   ar
    13    11    14    1
    14    12    15   ar
    15    13    16   ar
    16     6     7   ar
    17    10    12   ar
    18    15    16   ar
    19     4    17    1
    20     6    18    1
    21     8    19    1
    22    14    20    1
    23    14    21    1
    24    14    22    1
    25    15    23    1
    26    16    24    1
@<TRIPOS>MOLECULE
117
 32 34 0 0 0
SMALL
GASTEIGER

@<TRIPOS>ATOM
      1 O          -2.4633    1.9429    0.0320 O.2     1  UNL1       -0.2864
      2 C          -2.0092    0.8131    0.0039 C.ar    1  UNL1        0.2001
      3 C          -2.8432   -0.4006   -0.0183 C.ar    1  UNL1        0.0643
      4 C          -0.5691    0.5383   -0.0044 C.ar    1  UNL1        0.0648
      5 C          -3.9546   -0.3665   -0.0096 C.ar    1  UNL1       -0.0110
      6 C          -2.2754   -1.6604   -0.0480 C.ar    1  UNL1        0.1038
      7 C          -0.1032   -0.7681   -0.0344 C.ar    1  UNL1        0.1419
      8 C           0.4146    1.6006    0.0220 C.ar    1  UNL1       -0.0439
      9 C          -4.6559   -0.3336    1.2120 C.ar    1  UNL1       -0.0504
     10 C          -4.6815   -0.3097   -1.2146 C.ar    1  UNL1       -0.0504
     11 O          -0.9087   -1.8953   -0.0615 O.2     1  UNL1       -0.4620
     12 C           1.3223   -1.0056   -0.0383 C.ar    1  UNL1        0.0228
     13 C           1.7814    1.3482    0.0198 C.ar    1  UNL1       -0.0193
     14 C          -6.0473   -0.2498    1.2218 C.ar    1  UNL1       -0.0194
     15 C          -6.0720   -0.2274   -1.1887 C.ar    1  UNL1       -0.0194
     16 C           2.2402    0.0393   -0.0108 C.ar    1  UNL1        0.1204
     17 C          -6.7605   -0.1952    0.0211 C.ar    1  UNL1        0.1201
     18 O           3.5816   -0.2080   -0.0142 O.3     1  UNL1       -0.5066
     19 O          -8.1403   -0.1063   -0.0264 O.3     1  UNL1       -0.4951
     20 C          -8.9751    0.0166    1.1486 C.3     1  UNL1        0.0788
     21 H          -2.7996   -2.6101   -0.0653 H       1  UNL1        0.1037
     22 H           0.0637    2.6294    0.0454 H       1  UNL1        0.0627
     23 H          -4.1265   -0.3641    2.1628 H       1  UNL1        0.0625
     24 H          -4.1747   -0.3208   -2.1781 H       1  UNL1        0.0625
     25 H           1.6621   -2.0383   -0.0622 H       1  UNL1        0.0691
     26 H           2.4870    2.1756    0.0415 H       1  UNL1        0.0654
     27 H          -6.5616   -0.2228    2.1781 H       1  UNL1        0.0654
     28 H          -6.6253   -0.1804   -2.1236 H       1  UNL1        0.0654
     29 H           3.7475   -1.1678   -0.0449 H       1  UNL1        0.2921
     30 H         -10.0191    0.0873    0.8317 H       1  UNL1        0.0660
     31 H          -8.7006    0.9205    1.6994 H       1  UNL1        0.0660
     32 H          -8.8469   -0.8651    1.7822 H       1  UNL1        0.0660
@<TRIPOS>BOND
     1     1     2    2
     2     2     3   ar
     3     2     4   ar
     4     3     5    1
     5     3     6   ar
     6     4     7   ar
     7     4     8   ar
     8     5     9   ar
     9     5    10   ar
    10     6    11   ar
    11     7    12   ar
    12     8    13   ar
    13     9    14   ar
    14    10    15   ar
    15    12    16   ar
    16    14    17   ar
    17    16    18    1
    18    17    19    1
    19    19    20    1
    20     7    11   ar
    21    13    16   ar
    22    15    17   ar
    23     6    21    1
    24     8    22    1
    25     9    23    1
    26    10    24    1
    27    12    25    1
    28    13    26    1
    29    14    27    1
    30    15    28    1
    31    18    29    1
    32    20    30    1
    33    20    31    1
    34    20    32    1
@<TRIPOS>MOLECULE
119
 30 32 0 0 0
SMALL
GASTEIGER

@<TRIPOS>ATOM
      1 O          -2.4635    1.7110   -0.0272 O.2     1  UNL1       -0.2863
      2 C          -2.0142    0.5781   -0.0283 C.ar    1  UNL1        0.2037
      3 C          -0.5621    0.2875   -0.0107 C.ar    1  UNL1        0.1060
      4 C          -2.8850   -0.6144   -0.0774 C.ar    1  UNL1        0.0644
      5 C          -0.1186   -1.0288   -0.0103 C.ar    1  UNL1        0.1454
      6 C           0.4611    1.3271   -0.0046 C.ar    1  UNL1        0.1347
      7 C          -4.0050   -0.5419   -0.1361 C.ar    1  UNL1       -0.0110
      8 C          -2.3257   -1.8792   -0.0697 C.ar    1  UNL1        0.1038
      9 O          -0.9594   -2.1347    0.0126 O.2     1  UNL1       -0.4618
     10 C           1.3109   -1.2993   -0.0070 C.ar    1  UNL1        0.0231
     11 O           0.1385    2.6448    0.0084 O.3     1  UNL1       -0.5058
     12 C           1.8173    1.0366   -0.0092 C.ar    1  UNL1        0.0223
     13 C          -4.8479   -0.4912    0.9967 C.ar    1  UNL1       -0.0504
     14 C          -4.6127   -0.4457   -1.4068 C.ar    1  UNL1       -0.0504
     15 C           2.2571   -0.2730   -0.0107 C.ar    1  UNL1        0.1239
     16 C          -6.2355   -0.3492    0.8600 C.ar    1  UNL1       -0.0196
     17 C          -5.9989   -0.3066   -1.5279 C.ar    1  UNL1       -0.0196
     18 O           3.6113   -0.4857   -0.0103 O.3     1  UNL1       -0.5065
     19 C          -6.8221   -0.2529   -0.4029 C.ar    1  UNL1        0.1169
     20 O          -8.1824   -0.1074   -0.5752 O.3     1  UNL1       -0.5068
     21 H          -2.8601   -2.8222   -0.1106 H       1  UNL1        0.1037
     22 H           1.6284   -2.3393   -0.0022 H       1  UNL1        0.0691
     23 H          -0.8319    2.6794    0.0165 H       1  UNL1        0.2922
     24 H           2.5430    1.8478   -0.0082 H       1  UNL1        0.0691
     25 H          -4.4279   -0.5513    1.9987 H       1  UNL1        0.0625
     26 H          -4.0141   -0.4673   -2.3162 H       1  UNL1        0.0625
     27 H          -6.8583   -0.3094    1.7503 H       1  UNL1        0.0654
     28 H          -6.4410   -0.2305   -2.5187 H       1  UNL1        0.0654
     29 H           3.8638   -1.4214   -0.0359 H       1  UNL1        0.2921
     30 H          -8.7143    0.0004    0.2468 H       1  UNL1        0.2921
@<TRIPOS>BOND
     1     1     2    2
     2     2     3   ar
     3     2     4   ar
     4     3     5   ar
     5     3     6   ar
     6     4     7    1
     7     4     8   ar
     8     5     9   ar
     9     5    10   ar
    10     6    11    1
    11     6    12   ar
    12     7    13   ar
    13     7    14   ar
    14    10    15   ar
    15    13    16   ar
    16    14    17   ar
    17    15    18    1
    18    16    19   ar
    19    19    20    1
    20     8     9   ar
    21    12    15   ar
    22    17    19   ar
    23     8    21    1
    24    10    22    1
    25    11    23    1
    26    12    24    1
    27    13    25    1
    28    14    26    1
    29    16    27    1
    30    17    28    1
    31    18    29    1
    32    20    30    1
@<TRIPOS>MOLECULE
120
 82 88 0 0 0
SMALL
GASTEIGER

@<TRIPOS>ATOM
      1 O           3.3381   -0.2255   -1.0340 O.2     1  UNL1       -0.2495
      2 C           2.5925   -0.0384   -0.0896 C.2     1  UNL1        0.3224
      3 O           1.2395   -0.2405   -0.2029 O.3     1  UNL1       -0.4604
      4 C           3.0687    0.5038    1.2292 C.3     1  UNL1        0.1177
      5 C           0.7400   -0.9433   -1.3900 C.3     1  UNL1        0.1060
      6 C           2.7929    1.9554    1.2619 C.ar    1  UNL1       -0.0223
      7 C           4.5351    0.4918    1.4595 C.ar    1  UNL1       -0.0263
      8 C           2.3777   -0.3707    2.2839 C.3     1  UNL1       -0.0280
      9 C           0.7947   -0.0727   -2.6730 C.3     1  UNL1        0.0000
     10 C          -0.7153   -1.4935   -1.2458 C.3     1  UNL1        0.0000
     11 C           2.0260    2.5155    2.2978 C.ar    1  UNL1       -0.0291
     12 C           3.2799    2.8344    0.2767 C.ar    1  UNL1       -0.0569
     13 C           5.2272    1.4136    2.2793 C.ar    1  UNL1       -0.0572
     14 C           5.2524   -0.6613    1.0825 C.ar    1  UNL1       -0.0572
     15 C           1.1377    0.2634    2.9371 C.3     1  UNL1       -0.0344
     16 C           0.2803   -0.8844   -3.9110 C.3     1  UNL1        0.0138
     17 C          -1.2647   -2.0159   -2.6253 C.3     1  UNL1        0.0138
     18 C           1.7774    3.8831    2.3742 C.ar    1  UNL1       -0.0575
     19 C           1.5551    1.6619    3.3421 C.3     1  UNL1        0.0817
     20 C           3.0484    4.2048    0.3578 C.ar    1  UNL1       -0.0614
     21 C           6.5601    1.2175    2.6387 C.ar    1  UNL1       -0.0615
     22 C           6.5861   -0.8546    1.4359 C.ar    1  UNL1       -0.0615
     23 N          -0.0969   -2.2673   -3.5025 N.3     1  UNL1       -0.2992
     24 C          -1.0649   -0.3006   -4.3809 C.3     1  UNL1       -0.0358
     25 C          -2.0767   -0.9457   -3.4110 C.3     1  UNL1       -0.0358
     26 C           2.2988    4.7371    1.4105 C.ar    1  UNL1       -0.0615
     27 C           2.2670    1.7163    4.6393 C.2     1  UNL1        0.3148
     28 C           7.2440    0.0849    2.2176 C.ar    1  UNL1       -0.0617
     29 C          -0.3213   -3.2247   -4.6130 C.3     1  UNL1       -0.0122
     30 O           3.2652    2.3882    4.8187 O.2     1  UNL1       -0.2502
     31 O           1.7341    0.9132    5.5888 O.3     1  UNL1       -0.4608
     32 C           2.3578    0.6805    6.8811 C.3     1  UNL1        0.1059
     33 C           2.4518    1.9528    7.7670 C.3     1  UNL1        0.0000
     34 C           3.7330   -0.0460    6.7776 C.3     1  UNL1        0.0000
     35 C           3.1919    1.6396    9.1108 C.3     1  UNL1        0.0138
     36 C           4.4870   -0.0172    8.1455 C.3     1  UNL1        0.0138
     37 N           3.4753    0.1812    9.2116 N.3     1  UNL1       -0.2992
     38 C           4.6070    2.2505    9.0807 C.3     1  UNL1       -0.0358
     39 C           5.4206    1.2174    8.2772 C.3     1  UNL1       -0.0358
     40 C           3.8837   -0.3005   10.5508 C.3     1  UNL1       -0.0122
     41 H           1.3962   -1.8099   -1.5335 H       1  UNL1        0.0735
     42 H           3.0831   -0.5562    3.1007 H       1  UNL1        0.0283
     43 H           2.1336   -1.3685    1.9094 H       1  UNL1        0.0283
     44 H           1.8041    0.2851   -2.8748 H       1  UNL1        0.0316
     45 H           0.1822    0.8154   -2.5038 H       1  UNL1        0.0316
     46 H          -1.3803   -0.7336   -0.8273 H       1  UNL1        0.0316
     47 H          -0.7011   -2.3251   -0.5380 H       1  UNL1        0.0316
     48 H           3.8785    2.4501   -0.5506 H       1  UNL1        0.0621
     49 H           4.7440    2.2956    2.6864 H       1  UNL1        0.0621
     50 H           4.7661   -1.4622    0.5326 H       1  UNL1        0.0621
     51 H           0.8036   -0.3850    3.7558 H       1  UNL1        0.0277
     52 H           0.3326    0.2828    2.1933 H       1  UNL1        0.0277
     53 H           1.0324   -0.8819   -4.7063 H       1  UNL1        0.0464
     54 H          -1.8641   -2.9187   -2.4685 H       1  UNL1        0.0464
     55 H           1.2032    4.2907    3.1983 H       1  UNL1        0.0621
     56 H           0.5165    1.5765    3.6983 H       1  UNL1        0.0462
     57 H           3.4593    4.8778   -0.3907 H       1  UNL1        0.0618
     58 H           7.0599    1.9420    3.2771 H       1  UNL1        0.0618
     59 H           7.1049   -1.7595    1.1269 H       1  UNL1        0.0618
     60 H          -1.2693   -0.6148   -5.4072 H       1  UNL1        0.0281
     61 H          -1.0910    0.7910   -4.3566 H       1  UNL1        0.0281
     62 H          -2.5260   -0.2015   -2.7504 H       1  UNL1        0.0281
     63 H          -2.8764   -1.4198   -3.9852 H       1  UNL1        0.0281
     64 H           2.1307    5.8052    1.4824 H       1  UNL1        0.0618
     65 H           8.2763   -0.0787    2.5199 H       1  UNL1        0.0618
     66 H           0.6398   -3.4789   -5.0681 H       1  UNL1        0.0391
     67 H          -0.9768   -2.8099   -5.3814 H       1  UNL1        0.0391
     68 H          -0.7730   -4.1416   -4.2247 H       1  UNL1        0.0391
     69 H           1.6804   -0.0028    7.4005 H       1  UNL1        0.0735
     70 H           1.4481    2.3299    7.9692 H       1  UNL1        0.0316
     71 H           2.9752    2.7481    7.2331 H       1  UNL1        0.0316
     72 H           4.3584    0.3725    5.9873 H       1  UNL1        0.0316
     73 H           3.5431   -1.0857    6.5019 H       1  UNL1        0.0316
     74 H           2.6068    2.0078    9.9583 H       1  UNL1        0.0464
     75 H           5.0485   -0.9468    8.2739 H       1  UNL1        0.0464
     76 H           4.9998    2.3276   10.0977 H       1  UNL1        0.0281
     77 H           4.6382    3.2484    8.6368 H       1  UNL1        0.0281
     78 H           5.7139    1.6180    7.3039 H       1  UNL1        0.0281
     79 H           6.3283    0.9546    8.8254 H       1  UNL1        0.0281
     80 H           3.0429   -0.2024   11.2425 H       1  UNL1        0.0391
     81 H           4.7346    0.2637   10.9383 H       1  UNL1        0.0391
     82 H           4.1611   -1.3563   10.4880 H       1  UNL1        0.0391
@<TRIPOS>BOND
     1     1     2    2
     2     2     3    1
     3     2     4    1
     4     3     5    1
     5     4     6    1
     6     4     7    1
     7     4     8    1
     8     5     9    1
     9     5    10    1
    10     6    11   ar
    11     6    12   ar
    12     7    13   ar
    13     7    14   ar
    14     8    15    1
    15     9    16    1
    16    10    17    1
    17    11    18   ar
    18    11    19    1
    19    12    20   ar
    20    13    21   ar
    21    14    22   ar
    22    16    23    1
    23    16    24    1
    24    17    25    1
    25    18    26   ar
    26    19    27    1
    27    21    28   ar
    28    23    29    1
    29    27    30    2
    30    27    31    1
    31    31    32    1
    32    32    33    1
    33    32    34    1
    34    33    35    1
    35    34    36    1
    36    35    37    1
    37    35    38    1
    38    36    39    1
    39    37    40    1
    40    15    19    1
    41    17    23    1
    42    20    26   ar
    43    22    28   ar
    44    24    25    1
    45    36    37    1
    46    38    39    1
    47     5    41    1
    48     8    42    1
    49     8    43    1
    50     9    44    1
    51     9    45    1
    52    10    46    1
    53    10    47    1
    54    12    48    1
    55    13    49    1
    56    14    50    1
    57    15    51    1
    58    15    52    1
    59    16    53    1
    60    17    54    1
    61    18    55    1
    62    19    56    1
    63    20    57    1
    64    21    58    1
    65    22    59    1
    66    24    60    1
    67    24    61    1
    68    25    62    1
    69    25    63    1
    70    26    64    1
    71    28    65    1
    72    29    66    1
    73    29    67    1
    74    29    68    1
    75    32    69    1
    76    33    70    1
    77    33    71    1
    78    34    72    1
    79    34    73    1
    80    35    74    1
    81    36    75    1
    82    38    76    1
    83    38    77    1
    84    39    78    1
    85    39    79    1
    86    40    80    1
    87    40    81    1
    88    40    82    1
@<TRIPOS>MOLECULE
121
 54 56 0 0 0
SMALL
GASTEIGER

@<TRIPOS>ATOM
      1 O           0.5643   -1.6082    0.2398 O.3     1  UNL1       -0.3313
      2 C           1.2714   -0.3491    0.3875 C.3     1  UNL1        0.2308
      3 C           1.1305   -2.7445    0.9477 C.3     1  UNL1        0.1140
      4 O           1.3101    0.0942    1.7685 O.3     1  UNL1       -0.4607
      5 C           2.7210   -0.5191   -0.1314 C.3     1  UNL1        0.1454
      6 C           2.5668   -3.0188    0.4317 C.3     1  UNL1        0.1120
      7 C           0.1922   -3.9535    0.7343 C.3     1  UNL1        0.0731
      8 C           0.2046    0.1465    2.5969 C.ar    1  UNL1        0.1280
      9 O           3.4675    0.6800    0.1231 O.3     1  UNL1       -0.3829
     10 C           3.4397   -1.7457    0.4965 C.3     1  UNL1        0.1152
     11 O           3.1942   -4.0141    1.2472 O.3     1  UNL1       -0.3865
     12 O           0.0281   -4.2371   -0.6608 O.3     1  UNL1       -0.3924
     13 C          -1.1059    0.2328    2.1116 C.ar    1  UNL1        0.0217
     14 C           0.4288    0.0642    3.9703 C.ar    1  UNL1       -0.0124
     15 O           3.8148   -1.5017    1.8593 O.3     1  UNL1       -0.3864
     16 C          -2.1785    0.2344    3.0067 C.ar    1  UNL1        0.1209
     17 C          -0.6464    0.0566    4.8555 C.ar    1  UNL1       -0.0181
     18 O          -3.4642    0.2953    2.5672 O.3     1  UNL1       -0.5066
     19 C          -1.9477    0.1441    4.3730 C.ar    1  UNL1       -0.0128
     20 C          -0.4419   -0.1450    6.2938 C.2     1  UNL1       -0.0538
     21 C          -0.3811   -1.3282    6.9124 C.2     1  UNL1       -0.0539
     22 C          -0.3179   -1.5640    8.3592 C.ar    1  UNL1       -0.0213
     23 C          -1.5036   -1.6942    9.0756 C.ar    1  UNL1       -0.0094
     24 C           0.9052   -1.6424    9.0165 C.ar    1  UNL1       -0.0509
     25 C          -1.4843   -1.8993   10.4534 C.ar    1  UNL1        0.1590
     26 C           0.9360   -1.8482   10.3919 C.ar    1  UNL1       -0.0158
     27 O          -2.6933   -2.0114   11.0826 O.3     1  UNL1       -0.5033
     28 C          -0.2460   -1.9765   11.1245 C.ar    1  UNL1        0.1613
     29 O          -0.0833   -2.1710   12.4898 O.3     1  UNL1       -0.4915
     30 C          -1.1511   -2.3170   13.4524 C.3     1  UNL1        0.0790
     31 H           0.7369    0.4132   -0.2001 H       1  UNL1        0.1084
     32 H           1.1669   -2.5081    2.0155 H       1  UNL1        0.0647
     33 H           2.6762   -0.6739   -1.2130 H       1  UNL1        0.0683
     34 H           2.5198   -3.3725   -0.6021 H       1  UNL1        0.0647
     35 H          -0.7850   -3.7309    1.1713 H       1  UNL1        0.0584
     36 H           0.6035   -4.8326    1.2382 H       1  UNL1        0.0584
     37 H           3.1894    1.0391    0.9905 H       1  UNL1        0.2102
     38 H           4.3544   -1.9292   -0.0739 H       1  UNL1        0.0648
     39 H           3.6509   -3.5222    1.9648 H       1  UNL1        0.2100
     40 H          -0.3594   -3.4543   -1.0930 H       1  UNL1        0.2095
     41 H          -1.2959    0.2871    1.0432 H       1  UNL1        0.0691
     42 H           1.4452   -0.0255    4.3476 H       1  UNL1        0.0660
     43 H           4.3026   -0.6668    1.8681 H       1  UNL1        0.2100
     44 H          -3.4707    0.3325    1.6010 H       1  UNL1        0.2921
     45 H          -2.7883    0.1197    5.0639 H       1  UNL1        0.0660
     46 H          -0.4169    0.7619    6.8979 H       1  UNL1        0.0624
     47 H          -0.4416   -2.2308    6.3043 H       1  UNL1        0.0624
     48 H          -2.4542   -1.6290    8.5507 H       1  UNL1        0.0661
     49 H           1.8345   -1.5395    8.4609 H       1  UNL1        0.0625
     50 H           1.8941   -1.9061   10.9027 H       1  UNL1        0.0655
     51 H          -3.4113   -1.9207   10.4285 H       1  UNL1        0.2923
     52 H          -0.7145   -2.4470   14.4454 H       1  UNL1        0.0660
     53 H          -1.7506   -3.1956   13.1995 H       1  UNL1        0.0660
     54 H          -1.7749   -1.4191   13.4431 H       1  UNL1        0.0660
@<TRIPOS>BOND
     1     1     2    1
     2     1     3    1
     3     2     4    1
     4     2     5    1
     5     3     6    1
     6     3     7    1
     7     4     8    1
     8     5     9    1
     9     5    10    1
    10     6    11    1
    11     7    12    1
    12     8    13   ar
    13     8    14   ar
    14    10    15    1
    15    13    16   ar
    16    14    17   ar
    17    16    18    1
    18    16    19   ar
    19    17    20    1
    20    20    21    2
    21    21    22    1
    22    22    23   ar
    23    22    24   ar
    24    23    25   ar
    25    24    26   ar
    26    25    27    1
    27    25    28   ar
    28    28    29    1
    29    29    30    1
    30     6    10    1
    31    17    19   ar
    32    26    28   ar
    33     2    31    1
    34     3    32    1
    35     5    33    1
    36     6    34    1
    37     7    35    1
    38     7    36    1
    39     9    37    1
    40    10    38    1
    41    11    39    1
    42    12    40    1
    43    13    41    1
    44    14    42    1
    45    15    43    1
    46    18    44    1
    47    19    45    1
    48    20    46    1
    49    21    47    1
    50    23    48    1
    51    24    49    1
    52    26    50    1
    53    27    51    1
    54    30    52    1
    55    30    53    1
    56    30    54    1
@<TRIPOS>MOLECULE
122
 100 107 0 0 0
SMALL
GASTEIGER

@<TRIPOS>ATOM
      1 O           1.0016   -0.0743    0.1565 O.2     1  UNL1       -0.2864
      2 C           2.2020   -0.1004   -0.0389 C.2     1  UNL1        0.2007
      3 C           3.0140    1.1652   -0.1820 C.ar    1  UNL1        0.0679
      4 C           2.9073   -1.4155   -0.2575 C.ar    1  UNL1        0.0675
      5 C           2.3997    2.4363   -0.2178 C.ar    1  UNL1        0.1351
      6 C           4.4040    1.0649   -0.3627 C.ar    1  UNL1       -0.0247
      7 C           2.1950   -2.6304   -0.3218 C.ar    1  UNL1        0.1287
      8 C           4.3055   -1.4349   -0.3871 C.ar    1  UNL1       -0.0240
      9 O           1.0265    2.5421   -0.1031 O.3     1  UNL1       -0.4601
     10 C           3.1664    3.5860   -0.4030 C.ar    1  UNL1       -0.0191
     11 C           5.1110    2.2247   -0.7279 C.ar    1  UNL1       -0.0571
     12 C           5.0748   -0.2202   -0.1421 C.3     1  UNL1        0.0217
     13 O           0.8327   -2.6833   -0.1875 O.3     1  UNL1       -0.5060
     14 C           2.8662   -3.8415   -0.4983 C.ar    1  UNL1       -0.0055
     15 C           4.9612   -2.6624   -0.5799 C.ar    1  UNL1       -0.0431
     16 C           0.1621    3.5357   -0.7031 C.3     1  UNL1        0.2308
     17 C           4.5109    3.4748   -0.7090 C.ar    1  UNL1       -0.0580
     18 C           5.9005   -0.2375    1.0828 C.3     1  UNL1        0.0217
     19 C           4.2570   -3.8786   -0.6089 C.ar    1  UNL1        0.0626
     20 O           0.1280    4.7250    0.1097 O.3     1  UNL1       -0.3313
     21 C           0.5373    3.9428   -2.1542 C.3     1  UNL1        0.1454
     22 C           6.9594    0.7731    1.0843 C.ar    1  UNL1       -0.0240
     23 C           5.1377   -0.4773    2.3247 C.ar    1  UNL1       -0.0247
     24 C           5.0221   -5.1839   -0.6554 C.2     1  UNL1        0.3369
     25 C          -0.9544    5.6169   -0.2471 C.3     1  UNL1        0.1140
     26 O           0.6715    2.7835   -2.9888 O.3     1  UNL1       -0.3829
     27 C          -0.5542    4.9153   -2.6741 C.3     1  UNL1        0.1152
     28 C           6.9703    1.7611    2.0780 C.ar    1  UNL1        0.0675
     29 C           7.9069    0.8521    0.0461 C.ar    1  UNL1       -0.0431
     30 C           5.1458    0.4717    3.3705 C.ar    1  UNL1        0.0679
     31 C           4.4076   -1.6557    2.5454 C.ar    1  UNL1       -0.0571
     32 O           6.2314   -5.2096   -0.5521 O.2     1  UNL1       -0.2451
     33 O           4.3592   -6.3209   -0.7274 O.3     1  UNL1       -0.4771
     34 C          -0.7340    6.1182   -1.7025 C.3     1  UNL1        0.1120
     35 C          -1.0112    6.7506    0.7994 C.3     1  UNL1        0.0731
     36 O          -0.2129    5.4076   -3.9749 O.3     1  UNL1       -0.3864
     37 C           6.0955    1.6274    3.2935 C.2     1  UNL1        0.2007
     38 C           7.8007    2.8808    1.9330 C.ar    1  UNL1        0.1287
     39 C           8.8093    1.9289   -0.0487 C.ar    1  UNL1        0.0626
     40 C           4.3139    0.3089    4.4984 C.ar    1  UNL1        0.1351
     41 C           3.5723   -1.8043    3.6457 C.ar    1  UNL1       -0.0580
     42 O           0.4157    6.9751   -1.7693 O.3     1  UNL1       -0.3865
     43 O          -1.1905    6.1965    2.1084 O.3     1  UNL1       -0.3924
     44 O           6.2406    2.3678    4.2483 O.2     1  UNL1       -0.2864
     45 O           7.5841    3.9707    2.7288 O.3     1  UNL1       -0.5060
     46 C           8.7344    2.9526    0.8987 C.ar    1  UNL1       -0.0055
     47 C           9.7393    2.0363   -1.2361 C.2     1  UNL1        0.3369
     48 O           4.3335    1.2544    5.5227 O.3     1  UNL1       -0.4601
     49 C           3.4985   -0.8064    4.6077 C.ar    1  UNL1       -0.0191
     50 O           9.6212    1.3214   -2.2095 O.2     1  UNL1       -0.2451
     51 O          10.6712    2.9656   -1.2163 O.3     1  UNL1       -0.4771
     52 C           3.3587    1.4484    6.5729 C.3     1  UNL1        0.2308
     53 O           2.0716    1.8308    6.0230 O.3     1  UNL1       -0.3313
     54 C           3.8582    2.5721    7.5241 C.3     1  UNL1        0.1454
     55 C           2.0719    3.0579    5.2441 C.3     1  UNL1        0.1140
     56 O           5.1743    2.2578    8.0118 O.3     1  UNL1       -0.3829
     57 C           3.8658    3.9642    6.8313 C.3     1  UNL1        0.1152
     58 C           2.5221    4.2569    6.1270 C.3     1  UNL1        0.1120
     59 C           0.6665    3.2441    4.6187 C.3     1  UNL1        0.0731
     60 O           4.0424    4.9940    7.8141 O.3     1  UNL1       -0.3864
     61 O           1.5541    4.5899    7.1298 O.3     1  UNL1       -0.3865
     62 O          -0.3668    3.0754    5.5967 O.3     1  UNL1       -0.3924
     63 H           2.7127    4.5720   -0.3688 H       1  UNL1        0.0654
     64 H           6.1511    2.1829   -1.0178 H       1  UNL1        0.0621
     65 H           5.4050   -0.0870   -1.1851 H       1  UNL1        0.0407
     66 H           0.4772   -1.7682   -0.0304 H       1  UNL1        0.2922
     67 H           2.2919   -4.7647   -0.4978 H       1  UNL1        0.0662
     68 H           6.0478   -2.6766   -0.6332 H       1  UNL1        0.0629
     69 H          -0.8461    3.0925   -0.6848 H       1  UNL1        0.1084
     70 H           5.0932    4.3645   -0.9353 H       1  UNL1        0.0619
     71 H           6.4708   -1.1313    1.3805 H       1  UNL1        0.0407
     72 H           1.4889    4.4758   -2.1583 H       1  UNL1        0.0683
     73 H          -1.8940    5.0573   -0.2014 H       1  UNL1        0.0647
     74 H          -0.0801    2.7219   -3.6027 H       1  UNL1        0.2102
     75 H          -1.5018    4.3733   -2.7422 H       1  UNL1        0.0648
     76 H           7.9034    0.0974   -0.7372 H       1  UNL1        0.0629
     77 H           4.4642   -2.4946    1.8687 H       1  UNL1        0.0621
     78 H           3.4389   -6.2241   -1.0310 H       1  UNL1        0.2954
     79 H          -1.6111    6.6919   -2.0162 H       1  UNL1        0.0647
     80 H          -1.8423    7.4225    0.5708 H       1  UNL1        0.0584
     81 H          -0.0801    7.3240    0.7833 H       1  UNL1        0.0584
     82 H           0.3323    6.2125   -3.8561 H       1  UNL1        0.2100
     83 H           2.9762   -2.7059    3.7564 H       1  UNL1        0.0619
     84 H           1.0945    6.6344   -1.1573 H       1  UNL1        0.2100
     85 H          -1.8948    5.5211    2.0850 H       1  UNL1        0.2095
     86 H           8.2125    4.6779    2.6487 H       1  UNL1        0.2922
     87 H           9.3444    3.8453    0.7955 H       1  UNL1        0.0662
     88 H           2.8391   -0.9413    5.4600 H       1  UNL1        0.0654
     89 H          10.9244    3.2133   -0.3071 H       1  UNL1        0.2954
     90 H           3.2434    0.5030    7.1263 H       1  UNL1        0.1084
     91 H           3.1753    2.6138    8.3769 H       1  UNL1        0.0683
     92 H           2.7892    2.9470    4.4278 H       1  UNL1        0.0647
     93 H           5.8242    2.3180    7.2803 H       1  UNL1        0.2102
     94 H           4.6784    3.9990    6.0993 H       1  UNL1        0.0648
     95 H           2.6544    5.1299    5.4805 H       1  UNL1        0.0647
     96 H           0.5305    2.4980    3.8310 H       1  UNL1        0.0584
     97 H           0.5891    4.2379    4.1666 H       1  UNL1        0.0584
     98 H           3.1269    5.2557    8.0838 H       1  UNL1        0.2100
     99 H           0.7991    3.9941    7.0143 H       1  UNL1        0.2100
    100 H          -0.2318    2.2171    6.0420 H       1  UNL1        0.2095
@<TRIPOS>BOND
     1     1     2    2
     2     2     3    1
     3     2     4    1
     4     3     5   ar
     5     3     6   ar
     6     4     7   ar
     7     4     8   ar
     8     5     9    1
     9     5    10   ar
    10     6    11   ar
    11     6    12    1
    12     7    13    1
    13     7    14   ar
    14     8    15   ar
    15     9    16    1
    16    10    17   ar
    17    12    18    1
    18    14    19   ar
    19    16    20    1
    20    16    21    1
    21    18    22    1
    22    18    23    1
    23    19    24    1
    24    20    25    1
    25    21    26    1
    26    21    27    1
    27    22    28   ar
    28    22    29   ar
    29    23    30   ar
    30    23    31   ar
    31    24    32    2
    32    24    33    1
    33    25    34    1
    34    25    35    1
    35    27    36    1
    36    28    37    1
    37    28    38   ar
    38    29    39   ar
    39    30    40   ar
    40    31    41   ar
    41    34    42    1
    42    35    43    1
    43    37    44    2
    44    38    45    1
    45    38    46   ar
    46    39    47    1
    47    40    48    1
    48    40    49   ar
    49    47    50    2
    50    47    51    1
    51    48    52    1
    52    52    53    1
    53    52    54    1
    54    53    55    1
    55    54    56    1
    56    54    57    1
    57    55    58    1
    58    55    59    1
    59    57    60    1
    60    58    61    1
    61    59    62    1
    62     8    12    1
    63    11    17   ar
    64    15    19   ar
    65    27    34    1
    66    30    37    1
    67    39    46   ar
    68    41    49   ar
    69    57    58    1
    70    10    63    1
    71    11    64    1
    72    12    65    1
    73    13    66    1
    74    14    67    1
    75    15    68    1
    76    16    69    1
    77    17    70    1
    78    18    71    1
    79    21    72    1
    80    25    73    1
    81    26    74    1
    82    27    75    1
    83    29    76    1
    84    31    77    1
    85    33    78    1
    86    34    79    1
    87    35    80    1
    88    35    81    1
    89    36    82    1
    90    41    83    1
    91    42    84    1
    92    43    85    1
    93    45    86    1
    94    46    87    1
    95    49    88    1
    96    51    89    1
    97    52    90    1
    98    54    91    1
    99    55    92    1
   100    56    93    1
   101    57    94    1
   102    58    95    1
   103    59    96    1
   104    59    97    1
   105    60    98    1
   106    61    99    1
   107    62   100    1
@<TRIPOS>MOLECULE
123
 22 23 0 0 0
SMALL
GASTEIGER

@<TRIPOS>ATOM
      1 O           3.4989    1.0321   -0.0084 O.2     1  UNL1       -0.2452
      2 C           2.4606    0.4041   -0.0048 C.ar    1  UNL1        0.3372
      3 O           1.2584    1.0320   -0.0048 O.2     1  UNL1       -0.4220
      4 C           2.3944   -1.0666   -0.0006 C.ar    1  UNL1        0.0236
      5 C           0.0367    0.3902    0.0028 C.ar    1  UNL1        0.1427
      6 C           1.1465   -1.7776    0.0018 C.ar    1  UNL1       -0.0442
      7 C          -0.0312   -1.0423    0.0026 C.ar    1  UNL1        0.0213
      8 C          -1.1691    1.1653   -0.0035 C.ar    1  UNL1        0.0265
      9 C          -1.2829   -1.6531    0.0039 C.ar    1  UNL1       -0.0056
     10 C          -2.4042    0.5158   -0.0026 C.ar    1  UNL1        0.1620
     11 C          -2.4601   -0.8971    0.0024 C.ar    1  UNL1        0.1621
     12 O          -3.5248    1.3000   -0.0072 O.3     1  UNL1       -0.5032
     13 O          -3.6306   -1.6477    0.0058 O.3     1  UNL1       -0.4914
     14 C          -4.9806   -1.1262    0.0059 C.3     1  UNL1        0.0790
     15 H           3.3532   -1.5748   -0.0007 H       1  UNL1        0.0689
     16 H           1.1231   -2.8644    0.0016 H       1  UNL1        0.0627
     17 H          -1.1084    2.2508   -0.0076 H       1  UNL1        0.0692
     18 H          -1.3516   -2.7387    0.0058 H       1  UNL1        0.0662
     19 H          -3.2714    2.2398   -0.0104 H       1  UNL1        0.2923
     20 H          -5.6834   -1.9629    0.0148 H       1  UNL1        0.0660
     21 H          -5.1410   -0.5273   -0.8948 H       1  UNL1        0.0660
     22 H          -5.1356   -0.5133    0.8982 H       1  UNL1        0.0660
@<TRIPOS>BOND
     1     1     2    2
     2     2     3   ar
     3     2     4   ar
     4     3     5   ar
     5     4     6   ar
     6     5     7   ar
     7     5     8   ar
     8     7     9   ar
     9     8    10   ar
    10     9    11   ar
    11    10    12    1
    12    11    13    1
    13    13    14    1
    14     6     7   ar
    15    10    11   ar
    16     4    15    1
    17     6    16    1
    18     8    17    1
    19     9    18    1
    20    12    19    1
    21    14    20    1
    22    14    21    1
    23    14    22    1
@<TRIPOS>MOLECULE
125
 32 34 0 0 0
SMALL
GASTEIGER

@<TRIPOS>ATOM
      1 O           2.3940    1.6990    0.2451 O.2     1  UNL1       -0.2917
      2 C           1.8995    0.5873    0.2277 C.2     1  UNL1        0.1740
      3 C           0.4125    0.3305    0.1654 C.ar    1  UNL1        0.1007
      4 C           2.7972   -0.6269    0.2647 C.3     1  UNL1        0.0520
      5 C          -0.0427   -0.9968    0.1058 C.ar    1  UNL1        0.1389
      6 C          -0.5282    1.3723    0.1525 C.ar    1  UNL1        0.1343
      7 C           2.1634   -1.7399   -0.5835 C.3     1  UNL1        0.1322
      8 O           0.8638   -2.0414   -0.0123 O.3     1  UNL1       -0.4828
      9 C          -1.4108   -1.2745    0.0989 C.ar    1  UNL1        0.0225
     10 O          -0.1371    2.6760    0.1228 O.3     1  UNL1       -0.5058
     11 C          -1.8915    1.0892    0.1366 C.ar    1  UNL1        0.0222
     12 C           3.0629   -2.9603   -0.6772 C.ar    1  UNL1       -0.0067
     13 C          -2.3361   -0.2293    0.1228 C.ar    1  UNL1        0.1238
     14 C           3.0828   -3.9496    0.3091 C.ar    1  UNL1       -0.0516
     15 C           3.9404   -3.0513   -1.7594 C.ar    1  UNL1       -0.0516
     16 O          -3.6781   -0.4740    0.1006 O.3     1  UNL1       -0.5065
     17 C           3.9786   -5.0160    0.2120 C.ar    1  UNL1       -0.0198
     18 C           4.8327   -4.1136   -1.8578 C.ar    1  UNL1       -0.0198
     19 C           4.8571   -5.0936   -0.8703 C.ar    1  UNL1        0.1169
     20 O           5.7579   -6.1102   -0.9715 O.3     1  UNL1       -0.5068
     21 H           2.9147   -0.9628    1.2981 H       1  UNL1        0.0385
     22 H           3.7851   -0.3723   -0.1273 H       1  UNL1        0.0385
     23 H           1.9913   -1.3498   -1.5915 H       1  UNL1        0.0789
     24 H          -1.7503   -2.3066    0.0552 H       1  UNL1        0.0691
     25 H           0.8412    2.6748    0.0427 H       1  UNL1        0.2922
     26 H          -2.6130    1.9036    0.1271 H       1  UNL1        0.0691
     27 H           2.4103   -3.8862    1.1614 H       1  UNL1        0.0623
     28 H           3.9445   -2.2802   -2.5260 H       1  UNL1        0.0623
     29 H          -3.8504   -1.4289    0.0719 H       1  UNL1        0.2921
     30 H           3.9930   -5.7783    0.9866 H       1  UNL1        0.0654
     31 H           5.5194   -4.1684   -2.6983 H       1  UNL1        0.0654
     32 H           5.7325   -6.6617   -0.1727 H       1  UNL1        0.2921
@<TRIPOS>BOND
     1     1     2    2
     2     2     3    1
     3     2     4    1
     4     3     5   ar
     5     3     6   ar
     6     7     4    1
     7     5     8    1
     8     5     9   ar
     9     6    10    1
    10     6    11   ar
    11     9    13   ar
    12    12    14   ar
    13    12    15   ar
    14    13    16    1
    15    14    17   ar
    16    15    18   ar
    17    17    19   ar
    18    19    20    1
    19     7     8    1
    20    11    13   ar
    21    18    19   ar
    22     7    12    1
    23     4    21    1
    24     4    22    1
    25     7    23    1
    26     9    24    1
    27    10    25    1
    28    11    26    1
    29    14    27    1
    30    15    28    1
    31    16    29    1
    32    17    30    1
    33    18    31    1
    34    20    32    1
@<TRIPOS>MOLECULE
137
 59 61 0 0 0
SMALL
GASTEIGER

@<TRIPOS>ATOM
      1 O           0.4554    1.0303   -0.3736 O.3     1  UNL1       -0.3405
      2 C           1.1724   -0.1405    0.0940 C.3     1  UNL1        0.1899
      3 C          -0.9322    1.1858    0.0429 C.3     1  UNL1        0.1134
      4 O           1.3000   -0.0812    1.5497 O.3     1  UNL1       -0.3262
      5 C           0.3939   -1.3850   -0.4177 C.3     1  UNL1        0.1342
      6 C          -1.7421   -0.0875   -0.3413 C.3     1  UNL1        0.1119
      7 C          -1.4503    2.4393   -0.6963 C.3     1  UNL1        0.0796
      8 C           2.1601   -1.0645    2.1908 C.3     1  UNL1        0.1722
      9 O           1.0408   -2.6298   -0.1356 O.3     1  UNL1       -0.3841
     10 C          -1.0436   -1.3796    0.1351 C.3     1  UNL1        0.1141
     11 O          -3.0356   -0.0727    0.2517 O.3     1  UNL1       -0.3865
     12 O          -2.8105    2.7482   -0.3086 O.3     1  UNL1       -0.3460
     13 C           3.5609   -0.9720    1.6080 C.1     1  UNL1        0.0992
     14 C           2.2121   -0.8653    3.6982 C.ar    1  UNL1       -0.0049
     15 O          -1.0644   -1.4781    1.5769 O.3     1  UNL1       -0.3864
     16 C          -3.4684    3.6754   -1.2043 C.3     1  UNL1        0.1880
     17 N           4.7229   -0.8953    1.1244 N.1     1  UNL1       -0.1935
     18 C           2.3152   -1.9875    4.5232 C.ar    1  UNL1       -0.0551
     19 C           2.2092    0.4086    4.2729 C.ar    1  UNL1       -0.0551
     20 O          -2.9625    5.0248   -1.0081 O.3     1  UNL1       -0.3405
     21 C          -5.0017    3.6477   -0.9807 C.3     1  UNL1        0.1341
     22 C           2.4141   -1.8431    5.9046 C.ar    1  UNL1       -0.0614
     23 C           2.3048    0.5531    5.6572 C.ar    1  UNL1       -0.0614
     24 C          -3.2307    5.6174    0.2933 C.3     1  UNL1        0.1130
     25 O          -5.5029    2.3066   -1.0587 O.3     1  UNL1       -0.3841
     26 C          -5.3717    4.2888    0.3772 C.3     1  UNL1        0.1141
     27 C           2.4096   -0.5727    6.4724 C.ar    1  UNL1       -0.0617
     28 C          -4.7611    5.7048    0.4836 C.3     1  UNL1        0.1119
     29 C          -2.5717    7.0124    0.3642 C.3     1  UNL1        0.0730
     30 O          -6.7907    4.3916    0.5000 O.3     1  UNL1       -0.3864
     31 O          -5.3192    6.5598   -0.5264 O.3     1  UNL1       -0.3865
     32 O          -1.1540    6.8858    0.2684 O.3     1  UNL1       -0.3924
     33 H           2.1767   -0.0967   -0.3550 H       1  UNL1        0.0938
     34 H          -0.9617    1.3473    1.1244 H       1  UNL1        0.0647
     35 H           0.3358   -1.3005   -1.5070 H       1  UNL1        0.0671
     36 H          -1.8512   -0.1226   -1.4291 H       1  UNL1        0.0647
     37 H          -1.4208    2.2483   -1.7733 H       1  UNL1        0.0587
     38 H          -0.8148    3.3005   -0.4724 H       1  UNL1        0.0587
     39 H           1.7745   -2.0648    2.0042 H       1  UNL1        0.0808
     40 H           0.5263   -3.1019    0.5483 H       1  UNL1        0.2101
     41 H          -1.5813   -2.2369   -0.2799 H       1  UNL1        0.0648
     42 H          -2.9038   -0.4178    1.1510 H       1  UNL1        0.2100
     43 H          -0.5122   -0.7528    1.9637 H       1  UNL1        0.2100
     44 H          -3.2437    3.3728   -2.2388 H       1  UNL1        0.0937
     45 H           2.3337   -2.9853    4.0892 H       1  UNL1        0.0621
     46 H           2.1426    1.2933    3.6445 H       1  UNL1        0.0621
     47 H          -5.4661    4.2259   -1.7841 H       1  UNL1        0.0671
     48 H           2.5040   -2.7231    6.5380 H       1  UNL1        0.0618
     49 H           2.3068    1.5455    6.1005 H       1  UNL1        0.0618
     50 H          -2.8035    4.9769    1.0711 H       1  UNL1        0.0647
     51 H          -5.3462    1.8529   -0.2085 H       1  UNL1        0.2101
     52 H          -4.9836    3.6656    1.1882 H       1  UNL1        0.0648
     53 H           2.4937   -0.4587    7.5509 H       1  UNL1        0.0618
     54 H          -4.9864    6.1179    1.4710 H       1  UNL1        0.0647
     55 H          -2.8275    7.4905    1.3139 H       1  UNL1        0.0584
     56 H          -2.9318    7.6431   -0.4532 H       1  UNL1        0.0584
     57 H          -7.0666    5.1034   -0.1066 H       1  UNL1        0.2100
     58 H          -4.7738    6.4549   -1.3328 H       1  UNL1        0.2100
     59 H          -0.8620    6.2805    0.9702 H       1  UNL1        0.2095
@<TRIPOS>BOND
     1     1     2    1
     2     1     3    1
     3     2     4    1
     4     2     5    1
     5     3     6    1
     6     3     7    1
     7     4     8    1
     8     5     9    1
     9     5    10    1
    10     6    11    1
    11     7    12    1
    12     8    13    1
    13     8    14    1
    14    10    15    1
    15    12    16    1
    16    13    17    3
    17    14    18   ar
    18    14    19   ar
    19    16    20    1
    20    16    21    1
    21    18    22   ar
    22    19    23   ar
    23    20    24    1
    24    21    25    1
    25    21    26    1
    26    22    27   ar
    27    24    28    1
    28    24    29    1
    29    26    30    1
    30    28    31    1
    31    29    32    1
    32     6    10    1
    33    23    27   ar
    34    26    28    1
    35     2    33    1
    36     3    34    1
    37     5    35    1
    38     6    36    1
    39     7    37    1
    40     7    38    1
    41     8    39    1
    42     9    40    1
    43    10    41    1
    44    11    42    1
    45    15    43    1
    46    16    44    1
    47    18    45    1
    48    19    46    1
    49    21    47    1
    50    22    48    1
    51    23    49    1
    52    24    50    1
    53    25    51    1
    54    26    52    1
    55    27    53    1
    56    28    54    1
    57    29    55    1
    58    29    56    1
    59    30    57    1
    60    31    58    1
    61    32    59    1
@<TRIPOS>MOLECULE
138
 28 30 0 0 0
SMALL
GASTEIGER

@<TRIPOS>ATOM
      1 N           1.0605    0.0313   -0.0246 N.3     1  UNL1       -0.3246
      2 C           2.5335    0.0329   -0.0221 C.3     1  UNL1        0.0172
      3 C           3.0566    0.9141    1.1446 C.3     1  UNL1       -0.0320
      4 C           3.0595    0.6029   -1.3674 C.3     1  UNL1       -0.0320
      5 C           3.0595   -1.4169    0.1586 C.3     1  UNL1       -0.0320
      6 C           4.6069    0.9163    1.1474 C.3     1  UNL1       -0.0389
      7 C           4.6098    0.6045   -1.3671 C.3     1  UNL1       -0.0389
      8 C           4.6098   -1.4171    0.1602 C.3     1  UNL1       -0.0389
      9 C           5.1233    1.4850   -0.1991 C.3     1  UNL1       -0.0472
     10 C           5.1234   -0.5343    1.3263 C.3     1  UNL1       -0.0472
     11 C           5.1256   -0.8459   -1.1853 C.3     1  UNL1       -0.0472
     12 H           0.7114    0.9822   -0.1258 H       1  UNL1        0.1187
     13 H           0.7110   -0.3259    0.8622 H       1  UNL1        0.1187
     14 H           2.6863    0.5335    2.1003 H       1  UNL1        0.0286
     15 H           2.6862    1.9375    1.0400 H       1  UNL1        0.0286
     16 H           2.6891    1.6207   -1.5166 H       1  UNL1        0.0286
     17 H           2.6906    0.0005   -2.2020 H       1  UNL1        0.0286
     18 H           2.6907   -2.0553   -0.6488 H       1  UNL1        0.0286
     19 H           2.6893   -1.8384    1.0971 H       1  UNL1        0.0286
     20 H           4.9698    1.5375    1.9697 H       1  UNL1        0.0302
     21 H           4.9746    1.0062   -2.3155 H       1  UNL1        0.0302
     22 H           4.9747   -2.4392    0.2873 H       1  UNL1        0.0302
     23 H           6.2161    1.5083   -0.2009 H       1  UNL1        0.0271
     24 H           4.7784    2.5142   -0.3272 H       1  UNL1        0.0271
     25 H           4.7787   -0.9388    2.2814 H       1  UNL1        0.0271
     26 H           6.2163   -0.5422    1.3482 H       1  UNL1        0.0271
     27 H           6.2185   -0.8593   -1.2032 H       1  UNL1        0.0271
     28 H           4.7816   -1.4713   -2.0132 H       1  UNL1        0.0271
@<TRIPOS>BOND
     1     1     2    1
     2     2     3    1
     3     2     4    1
     4     2     5    1
     5     3     6    1
     6     4     7    1
     7     5     8    1
     8     6     9    1
     9     6    10    1
    10     7    11    1
    11     7     9    1
    12     8    10    1
    13     8    11    1
    14     1    12    1
    15     1    13    1
    16     3    14    1
    17     3    15    1
    18     4    16    1
    19     4    17    1
    20     5    18    1
    21     5    19    1
    22     6    20    1
    23     7    21    1
    24     8    22    1
    25     9    23    1
    26     9    24    1
    27    10    25    1
    28    10    26    1
    29    11    27    1
    30    11    28    1
@<TRIPOS>MOLECULE
139
 14 14 0 0 0
SMALL
GASTEIGER

@<TRIPOS>ATOM
      1 O           1.6336   -1.4009   -0.0346 O.3     1  UNL1       -0.5033
      2 C           0.4655   -0.6954   -0.0403 C.ar    1  UNL1        0.1582
      3 C           0.4774    0.7001    0.0435 C.ar    1  UNL1        0.1582
      4 C          -0.7492   -1.3780   -0.0956 C.ar    1  UNL1       -0.0165
      5 O           1.6577    1.3850    0.0380 O.3     1  UNL1       -0.5033
      6 C          -0.7252    1.4036    0.0982 C.ar    1  UNL1       -0.0165
      7 C          -1.9502   -0.6718   -0.0501 C.ar    1  UNL1       -0.0581
      8 C          -1.9382    0.7183    0.0523 C.ar    1  UNL1       -0.0581
      9 H           2.2882   -0.9309    0.5138 H       1  UNL1        0.2923
     10 H          -0.7611   -2.4634   -0.1618 H       1  UNL1        0.0655
     11 H           2.3045    0.9024   -0.5088 H       1  UNL1        0.2923
     12 H          -0.7184    2.4891    0.1643 H       1  UNL1        0.0655
     13 H          -2.8961   -1.2065   -0.0885 H       1  UNL1        0.0619
     14 H          -2.8748    1.2693    0.0903 H       1  UNL1        0.0619
@<TRIPOS>BOND
     1     1     2    1
     2     2     3   ar
     3     2     4   ar
     4     3     5    1
     5     3     6   ar
     6     4     7   ar
     7     6     8   ar
     8     7     8   ar
     9     1     9    1
    10     4    10    1
    11     5    11    1
    12     6    12    1
    13     7    13    1
    14     8    14    1
@<TRIPOS>MOLECULE
140
 25 25 0 0 0
SMALL
GASTEIGER

@<TRIPOS>ATOM
      1 O           1.2355   -0.0764    0.3957 O.2     1  UNL1       -0.2478
      2 C           2.3570    0.1992    0.0235 C.2     1  UNL1        0.3369
      3 O           3.0373    1.1704    0.5829 O.3     1  UNL1       -0.4786
      4 C           3.1263   -0.5942   -1.0392 C.3     1  UNL1        0.1667
      5 O           4.0398    0.2987   -1.6905 O.3     1  UNL1       -0.3772
      6 C           2.1959   -1.1736   -2.1459 C.3     1  UNL1        0.0152
      7 C           3.9575   -1.7281   -0.3883 C.3     1  UNL1        0.0152
      8 C           1.3300   -2.3687   -1.6691 C.3     1  UNL1        0.0866
      9 C           3.0595   -2.8733    0.1343 C.3     1  UNL1        0.0866
     10 O           0.6417   -2.9326   -2.7892 O.3     1  UNL1       -0.3890
     11 C           2.1793   -3.4695   -0.9910 C.3     1  UNL1        0.1070
     12 O           3.8814   -3.9078    0.6751 O.3     1  UNL1       -0.3890
     13 O           2.9901   -4.1522   -1.9633 O.3     1  UNL1       -0.3867
     14 H           3.9080    1.2281    0.1433 H       1  UNL1        0.2951
     15 H           3.5016    0.9531   -2.1708 H       1  UNL1        0.2109
     16 H           2.8083   -1.5001   -2.9911 H       1  UNL1        0.0324
     17 H           1.5394   -0.3841   -2.5215 H       1  UNL1        0.0324
     18 H           4.5487   -1.3239    0.4378 H       1  UNL1        0.0324
     19 H           4.6666   -2.1262   -1.1193 H       1  UNL1        0.0324
     20 H           0.5817   -2.0136   -0.9563 H       1  UNL1        0.0621
     21 H           2.4143   -2.4885    0.9298 H       1  UNL1        0.0621
     22 H           1.1917   -3.6560   -3.1490 H       1  UNL1        0.2099
     23 H           1.4990   -4.2004   -0.5428 H       1  UNL1        0.0645
     24 H           4.1676   -4.4696   -0.0698 H       1  UNL1        0.2099
     25 H           3.5565   -3.5092   -2.4275 H       1  UNL1        0.2100
@<TRIPOS>BOND
     1     1     2    2
     2     2     3    1
     3     2     4    1
     4     4     5    1
     5     4     6    1
     6     4     7    1
     7     6     8    1
     8     7     9    1
     9     8    10    1
    10     8    11    1
    11     9    12    1
    12    11    13    1
    13     9    11    1
    14     3    14    1
    15     5    15    1
    16     6    16    1
    17     6    17    1
    18     7    18    1
    19     7    19    1
    20     8    20    1
    21     9    21    1
    22    10    22    1
    23    11    23    1
    24    12    24    1
    25    13    25    1
@<TRIPOS>MOLECULE
141
 20 20 0 0 0
SMALL
GASTEIGER

@<TRIPOS>ATOM
      1 O           4.2456   -1.6842    1.8936 O.2     1  UNL1       -0.2458
      2 C           4.0044   -1.0041    0.9186 C.2     1  UNL1        0.3296
      3 O           3.2366   -1.4461   -0.0460 O.3     1  UNL1       -0.4775
      4 C           4.6197    0.3348    0.7336 C.2     1  UNL1        0.0229
      5 C           4.3985    1.2511   -0.2231 C.2     1  UNL1       -0.0477
      6 C           5.0906    2.5489   -0.3802 C.ar    1  UNL1       -0.0214
      7 C           4.7136    3.6767    0.3594 C.ar    1  UNL1       -0.0130
      8 C           6.1589    2.6379   -1.2737 C.ar    1  UNL1       -0.0544
      9 C           5.4053    4.8836    0.2016 C.ar    1  UNL1        0.1174
     10 C           6.8459    3.8386   -1.4314 C.ar    1  UNL1       -0.0578
     11 O           5.0690    6.0030    0.9112 O.3     1  UNL1       -0.5068
     12 C           6.4699    4.9589   -0.6953 C.ar    1  UNL1       -0.0201
     13 H           3.2746   -0.8354   -0.7978 H       1  UNL1        0.2954
     14 H           5.3566    0.6057    1.4897 H       1  UNL1        0.0689
     15 H           3.6607    1.0362   -0.9948 H       1  UNL1        0.0626
     16 H           3.8844    3.6124    1.0605 H       1  UNL1        0.0660
     17 H           6.4629    1.7661   -1.8489 H       1  UNL1        0.0623
     18 H           7.6792    3.9017   -2.1273 H       1  UNL1        0.0619
     19 H           4.3356    5.8435    1.5312 H       1  UNL1        0.2921
     20 H           7.0115    5.8939   -0.8194 H       1  UNL1        0.0654
@<TRIPOS>BOND
     1     1     2    2
     2     2     3    1
     3     2     4    1
     4     4     5    2
     5     5     6    1
     6     6     7   ar
     7     6     8   ar
     8     7     9   ar
     9     8    10   ar
    10     9    11    1
    11     9    12   ar
    12    10    12   ar
    13     3    13    1
    14     4    14    1
    15     5    15    1
    16     7    16    1
    17     8    17    1
    18    10    18    1
    19    11    19    1
    20    12    20    1
@<TRIPOS>MOLECULE
142
 24 24 0 0 0
SMALL
GASTEIGER

@<TRIPOS>ATOM
      1 O           1.4630    1.2103    0.9369 O.2     1  UNL1       -0.2458
      2 C           2.5528    0.8131    0.5838 C.2     1  UNL1        0.3296
      3 O           3.1560    1.3264   -0.4596 O.3     1  UNL1       -0.4775
      4 C           3.2723   -0.2456    1.3388 C.2     1  UNL1        0.0229
      5 C           4.4314   -0.8659    1.0636 C.2     1  UNL1       -0.0477
      6 C           5.0915   -1.8974    1.8962 C.ar    1  UNL1       -0.0211
      7 C           4.6557   -3.2270    1.8784 C.ar    1  UNL1       -0.0092
      8 C           6.1358   -1.5279    2.7441 C.ar    1  UNL1       -0.0509
      9 C           5.2574   -4.1793    2.7152 C.ar    1  UNL1        0.1618
     10 C           6.7370   -2.4720    3.5750 C.ar    1  UNL1       -0.0160
     11 O           4.8639   -5.5094    2.7556 O.3     1  UNL1       -0.4914
     12 C           6.2944   -3.7930    3.5652 C.ar    1  UNL1        0.1585
     13 C           3.8299   -6.0657    1.9112 C.3     1  UNL1        0.0790
     14 O           6.8640   -4.7144    4.3953 O.3     1  UNL1       -0.5033
     15 H           4.0573    0.9792   -0.5239 H       1  UNL1        0.2954
     16 H           2.7723   -0.5648    2.2535 H       1  UNL1        0.0689
     17 H           4.9682   -0.6008    0.1539 H       1  UNL1        0.0626
     18 H           3.8394   -3.5078    1.2190 H       1  UNL1        0.0661
     19 H           6.4785   -0.4965    2.7694 H       1  UNL1        0.0625
     20 H           7.5452   -2.1743    4.2388 H       1  UNL1        0.0655
     21 H           3.7276   -7.1306    2.1377 H       1  UNL1        0.0660
     22 H           4.1094   -5.9436    0.8611 H       1  UNL1        0.0660
     23 H           2.8815   -5.5598    2.1117 H       1  UNL1        0.0660
     24 H           6.3886   -5.5640    4.2717 H       1  UNL1        0.2923
@<TRIPOS>BOND
     1     1     2    2
     2     2     3    1
     3     2     4    1
     4     4     5    2
     5     5     6    1
     6     6     7   ar
     7     6     8   ar
     8     7     9   ar
     9     8    10   ar
    10     9    11    1
    11     9    12   ar
    12    11    13    1
    13    12    14    1
    14    10    12   ar
    15     3    15    1
    16     4    16    1
    17     5    17    1
    18     7    18    1
    19     8    19    1
    20    10    20    1
    21    13    21    1
    22    13    22    1
    23    13    23    1
    24    14    24    1
@<TRIPOS>MOLECULE
145
 20 20 0 0 0
SMALL
GASTEIGER

@<TRIPOS>ATOM
      1 O           1.0939   -0.1883    0.3656 O.2     1  UNL1       -0.2458
      2 C           2.3069   -0.1974    0.3623 C.2     1  UNL1        0.3296
      3 O           2.9820   -1.2858    0.6323 O.3     1  UNL1       -0.4775
      4 C           3.0947    1.0306    0.0879 C.2     1  UNL1        0.0229
      5 C           4.4274    1.1938    0.0323 C.2     1  UNL1       -0.0478
      6 C           5.1618    2.4529   -0.2228 C.ar    1  UNL1       -0.0246
      7 C           4.8446    3.6118    0.4904 C.ar    1  UNL1       -0.0511
      8 C           6.1885    2.4954   -1.1695 C.ar    1  UNL1       -0.0511
      9 C           5.5448    4.7968    0.2653 C.ar    1  UNL1       -0.0196
     10 C           6.8914    3.6796   -1.3929 C.ar    1  UNL1       -0.0196
     11 C           6.5746    4.8322   -0.6750 C.ar    1  UNL1        0.1169
     12 O           7.2753    5.9840   -0.8932 O.3     1  UNL1       -0.5068
     13 H           3.9292   -1.0815    0.6273 H       1  UNL1        0.2954
     14 H           2.4959    1.9240   -0.0881 H       1  UNL1        0.0689
     15 H           5.0661    0.3266    0.1959 H       1  UNL1        0.0626
     16 H           4.0476    3.5954    1.2300 H       1  UNL1        0.0625
     17 H           6.4482    1.6029   -1.7339 H       1  UNL1        0.0625
     18 H           5.2858    5.6897    0.8281 H       1  UNL1        0.0654
     19 H           7.6939    3.7017   -2.1283 H       1  UNL1        0.0654
     20 H           6.9770    6.6976   -0.2963 H       1  UNL1        0.2921
@<TRIPOS>BOND
     1     1     2    2
     2     2     3    1
     3     2     4    1
     4     4     5    2
     5     5     6    1
     6     6     7   ar
     7     6     8   ar
     8     7     9   ar
     9     8    10   ar
    10     9    11   ar
    11    11    12    1
    12    10    11   ar
    13     3    13    1
    14     4    14    1
    15     5    15    1
    16     7    16    1
    17     8    17    1
    18     9    18    1
    19    10    19    1
    20    12    20    1
@<TRIPOS>MOLECULE
146
 21 22 0 0 0
SMALL
GASTEIGER

@<TRIPOS>ATOM
      1 O           2.4878    1.3805    0.0412 O.2     1  UNL1       -0.2462
      2 C           1.4455    0.7515    0.0286 C.ar    1  UNL1        0.3331
      3 N           1.4260   -0.6191    0.0327 N.ar    1  UNL1       -0.2622
      4 N           0.2391    1.3921    0.0123 N.ar    1  UNL1       -0.2796
      5 C           0.3011   -1.3928    0.0226 C.ar    1  UNL1        0.2820
      6 C           2.7159   -1.3507    0.0541 C.3     1  UNL1        0.0196
      7 C          -0.9816    0.7364    0.0057 C.ar    1  UNL1        0.1676
      8 C           0.1520    2.8633    0.0064 C.3     1  UNL1        0.0181
      9 O           0.3364   -2.6100    0.0277 O.2     1  UNL1       -0.2652
     10 C          -0.9545   -0.6298    0.0103 C.ar    1  UNL1        0.1488
     11 N          -2.0731    0.5000   -0.0015 N.ar    1  UNL1       -0.2179
     12 N          -2.2795   -0.9091    0.0028 N.ar    1  UNL1       -0.3389
     13 C          -3.1335    0.1559   -0.0036 C.ar    1  UNL1        0.0963
     14 H           3.5780   -0.6806    0.0378 H       1  UNL1        0.0458
     15 H           2.7724   -2.0060   -0.8196 H       1  UNL1        0.0458
     16 H           2.7673   -1.9597    0.9607 H       1  UNL1        0.0458
     17 H           1.1388    3.3306   -0.0300 H       1  UNL1        0.0458
     18 H          -0.3627    3.1947    0.9122 H       1  UNL1        0.0458
     19 H          -0.4207    3.1845   -0.8679 H       1  UNL1        0.0458
     20 H          -2.6089   -1.8642    0.0048 H       1  UNL1        0.1670
     21 H          -4.2066    0.0366   -0.0040 H       1  UNL1        0.1027
@<TRIPOS>BOND
     1     1     2    2
     2     2     3   ar
     3     2     4   ar
     4     3     5   ar
     5     3     6    1
     6     4     7   ar
     7     4     8    1
     8     5     9    2
     9     5    10   ar
    10     7    11   ar
    11    10    12   ar
    12    11    13   ar
    13     7    10   ar
    14    12    13   ar
    15     6    14    1
    16     6    15    1
    17     6    16    1
    18     8    17    1
    19     8    18    1
    20     8    19    1
    21    12    20    1
    22    13    21    1
@<TRIPOS>MOLECULE
147
 47 48 0 0 0
SMALL
GASTEIGER

@<TRIPOS>ATOM
      1 O           2.4321   -1.1374    0.5654 O.2     1  UNL1       -0.2922
      2 C           2.2735   -0.0459    0.0572 C.2     1  UNL1        0.1635
      3 C           1.2772    0.9159    0.5808 C.2     1  UNL1       -0.0182
      4 C           2.9898    0.3492   -1.2203 C.3     1  UNL1        0.0724
      5 C           0.4359    0.7322    1.6082 C.2     1  UNL1       -0.0512
      6 C           4.4911    0.4671   -1.0607 C.2     1  UNL1        0.1635
      7 C          -0.5515    1.7032    2.1071 C.ar    1  UNL1       -0.0212
      8 O           5.0502    1.5445   -1.1350 O.2     1  UNL1       -0.2922
      9 C           5.2521   -0.7992   -0.9530 C.2     1  UNL1       -0.0182
     10 C          -0.1783    2.6311    3.0804 C.ar    1  UNL1       -0.0092
     11 C          -1.8382    1.7350    1.5706 C.ar    1  UNL1       -0.0509
     12 C           6.5863   -0.9280   -0.9793 C.2     1  UNL1       -0.0512
     13 C          -1.0896    3.5982    3.5148 C.ar    1  UNL1        0.1618
     14 C          -2.7511    2.6974    2.0012 C.ar    1  UNL1       -0.0160
     15 C           7.3842   -2.1666   -0.8891 C.ar    1  UNL1       -0.0212
     16 O          -0.7699    4.5573    4.4657 O.3     1  UNL1       -0.4914
     17 C          -2.3723    3.6267    2.9666 C.ar    1  UNL1        0.1585
     18 C           8.4150   -2.3917   -1.8028 C.ar    1  UNL1       -0.0092
     19 C           7.1370   -3.0984    0.1215 C.ar    1  UNL1       -0.0509
     20 C           0.5259    4.6334    5.1044 C.3     1  UNL1        0.0790
     21 O          -3.2426    4.5841    3.3820 O.3     1  UNL1       -0.5033
     22 C           9.2067   -3.5407   -1.7041 C.ar    1  UNL1        0.1618
     23 C           7.9188   -4.2478    0.2192 C.ar    1  UNL1       -0.0160
     24 O          10.2569   -3.8080   -2.5716 O.3     1  UNL1       -0.4914
     25 C           8.9527   -4.4631   -0.6888 C.ar    1  UNL1        0.1585
     26 C          10.6440   -2.9165   -3.6438 C.3     1  UNL1        0.0790
     27 O           9.7375   -5.5705   -0.5941 O.3     1  UNL1       -0.5033
     28 H           1.2109    1.8783    0.0730 H       1  UNL1        0.0653
     29 H           2.6028    1.3012   -1.5910 H       1  UNL1        0.0426
     30 H           2.7680   -0.3953   -1.9883 H       1  UNL1        0.0426
     31 H           0.4584   -0.2189    2.1407 H       1  UNL1        0.0625
     32 H           4.6681   -1.7135   -0.8493 H       1  UNL1        0.0653
     33 H           0.8306    2.5943    3.4828 H       1  UNL1        0.0661
     34 H          -2.1301    1.0212    0.8034 H       1  UNL1        0.0625
     35 H           7.1812   -0.0229   -1.1002 H       1  UNL1        0.0625
     36 H          -3.7499    2.7303    1.5749 H       1  UNL1        0.0655
     37 H           8.5966   -1.6575   -2.5832 H       1  UNL1        0.0661
     38 H           6.3380   -2.9297    0.8394 H       1  UNL1        0.0625
     39 H           0.5263    5.4733    5.8059 H       1  UNL1        0.0660
     40 H           1.2986    4.7929    4.3467 H       1  UNL1        0.0660
     41 H           0.7203    3.7050    5.6494 H       1  UNL1        0.0660
     42 H          -2.7499    5.1239    4.0337 H       1  UNL1        0.2923
     43 H           7.7276   -4.9708    1.0090 H       1  UNL1        0.0655
     44 H          11.5066   -3.3422   -4.1635 H       1  UNL1        0.0660
     45 H          10.9152   -1.9418   -3.2289 H       1  UNL1        0.0660
     46 H           9.8133   -2.8084   -4.3467 H       1  UNL1        0.0660
     47 H          10.4014   -5.4927   -1.3106 H       1  UNL1        0.2923
@<TRIPOS>BOND
     1     1     2    2
     2     2     3    1
     3     2     4    1
     4     3     5    2
     5     4     6    1
     6     5     7    1
     7     6     8    2
     8     6     9    1
     9     7    10   ar
    10     7    11   ar
    11     9    12    2
    12    10    13   ar
    13    11    14   ar
    14    12    15    1
    15    13    16    1
    16    13    17   ar
    17    15    18   ar
    18    15    19   ar
    19    16    20    1
    20    17    21    1
    21    18    22   ar
    22    19    23   ar
    23    22    24    1
    24    22    25   ar
    25    24    26    1
    26    25    27    1
    27    14    17   ar
    28    23    25   ar
    29     3    28    1
    30     4    29    1
    31     4    30    1
    32     5    31    1
    33     9    32    1
    34    10    33    1
    35    11    34    1
    36    12    35    1
    37    14    36    1
    38    18    37    1
    39    19    38    1
    40    20    39    1
    41    20    40    1
    42    20    41    1
    43    21    42    1
    44    23    43    1
    45    26    44    1
    46    26    45    1
    47    26    46    1
    48    27    47    1
@<TRIPOS>MOLECULE
148
 53 56 0 0 0
SMALL
GASTEIGER

@<TRIPOS>ATOM
      1 O          -2.5180    1.2203   -0.4402 O.2     1  UNL1       -0.2830
      2 C          -1.9141    0.1709   -0.3195 C.ar    1  UNL1        0.2382
      3 C          -2.5063   -1.1964   -0.4784 C.ar    1  UNL1        0.2138
      4 C          -0.4641    0.1395   -0.0691 C.ar    1  UNL1        0.1092
      5 O          -3.8119   -1.3871   -0.9232 O.3     1  UNL1       -0.4532
      6 C          -1.8542   -2.1133   -0.3602 C.ar    1  UNL1        0.1810
      7 C           0.0986   -1.1133   -0.0009 C.ar    1  UNL1        0.1465
      8 C           0.4097    1.2875    0.0274 C.ar    1  UNL1        0.1348
      9 C          -4.8420   -0.3544   -0.8326 C.3     1  UNL1        0.2311
     10 O          -0.7464   -2.2000   -0.1621 O.2     1  UNL1       -0.4507
     11 C          -1.8955   -3.6095   -0.5540 C.ar    1  UNL1        0.0247
     12 C           1.5357   -1.2569    0.0746 C.ar    1  UNL1        0.0231
     13 O          -0.1375    2.5335   -0.0065 O.3     1  UNL1       -0.5058
     14 C           1.7903    1.1404    0.1041 C.ar    1  UNL1        0.0223
     15 O          -5.2093   -0.0890    0.5445 O.3     1  UNL1       -0.3313
     16 C          -6.0998   -0.7697   -1.6123 C.3     1  UNL1        0.1454
     17 C          -1.5791   -4.1801   -1.8035 C.ar    1  UNL1       -0.0057
     18 C          -2.2212   -4.4675    0.5167 C.ar    1  UNL1       -0.0473
     19 C           2.3589   -0.1285    0.1175 C.ar    1  UNL1        0.1239
     20 C          -5.7840   -1.2056    1.2713 C.3     1  UNL1        0.1140
     21 O          -5.7340   -1.0861   -2.9544 O.3     1  UNL1       -0.3829
     22 C          -6.7666   -1.9839   -0.9420 C.3     1  UNL1        0.1152
     23 C          -1.5237   -5.5657   -1.9481 C.ar    1  UNL1        0.1589
     24 C          -2.1702   -5.8536    0.3534 C.ar    1  UNL1       -0.0159
     25 O           3.7201   -0.2339    0.1684 O.3     1  UNL1       -0.5065
     26 C          -7.0722   -1.7011    0.5536 C.3     1  UNL1        0.1120
     27 C          -6.0154   -0.7414    2.7256 C.3     1  UNL1        0.0731
     28 O          -7.9613   -2.2938   -1.6569 O.3     1  UNL1       -0.3864
     29 O          -1.1785   -6.1276   -3.1404 O.3     1  UNL1       -0.5033
     30 C          -1.7994   -6.4003   -0.8727 C.ar    1  UNL1        0.1583
     31 O          -8.1623   -0.7712    0.7007 O.3     1  UNL1       -0.3865
     32 O          -6.5302   -1.8096    3.5212 O.3     1  UNL1       -0.3924
     33 O          -1.6782   -7.7475   -1.0479 O.3     1  UNL1       -0.5033
     34 H          -4.4722    0.5747   -1.2865 H       1  UNL1        0.1084
     35 H           1.9645   -2.2561    0.0872 H       1  UNL1        0.0691
     36 H          -1.1045    2.4148   -0.1469 H       1  UNL1        0.2922
     37 H           2.4275    2.0217    0.1445 H       1  UNL1        0.0691
     38 H          -6.8009    0.0696   -1.6263 H       1  UNL1        0.0683
     39 H          -1.3363   -3.5407   -2.6484 H       1  UNL1        0.0662
     40 H          -2.4839   -4.0584    1.4892 H       1  UNL1        0.0626
     41 H          -5.0505   -2.0177    1.2810 H       1  UNL1        0.0647
     42 H          -5.1832   -1.8837   -2.9058 H       1  UNL1        0.2102
     43 H          -6.0885   -2.8404   -0.9989 H       1  UNL1        0.0648
     44 H          -2.3981   -6.5073    1.1918 H       1  UNL1        0.0655
     45 H           4.0152   -1.1526    0.0579 H       1  UNL1        0.2921
     46 H          -7.3746   -2.6431    1.0200 H       1  UNL1        0.0647
     47 H          -6.7114    0.1018    2.7487 H       1  UNL1        0.0584
     48 H          -5.0621   -0.4128    3.1483 H       1  UNL1        0.0584
     49 H          -8.5917   -2.6401   -1.0136 H       1  UNL1        0.2100
     50 H          -1.1226   -5.4288   -3.8055 H       1  UNL1        0.2923
     51 H          -7.9423    0.0896    0.2991 H       1  UNL1        0.2100
     52 H          -7.5040   -1.7634    3.4888 H       1  UNL1        0.2095
     53 H          -1.3162   -7.8846   -1.9556 H       1  UNL1        0.2923
@<TRIPOS>BOND
     1     1     2    2
     2     2     3   ar
     3     2     4   ar
     4     3     5    1
     5     3     6   ar
     6     4     7   ar
     7     4     8   ar
     8     5     9    1
     9     6    10   ar
    10     6    11    1
    11     7    12   ar
    12     8    13    1
    13     8    14   ar
    14     9    15    1
    15     9    16    1
    16    11    17   ar
    17    11    18   ar
    18    12    19   ar
    19    15    20    1
    20    16    21    1
    21    16    22    1
    22    17    23   ar
    23    18    24   ar
    24    19    25    1
    25    20    26    1
    26    20    27    1
    27    22    28    1
    28    23    29    1
    29    23    30   ar
    30    26    31    1
    31    27    32    1
    32    30    33    1
    33     7    10   ar
    34    14    19   ar
    35    22    26    1
    36    24    30   ar
    37     9    34    1
    38    12    35    1
    39    13    36    1
    40    14    37    1
    41    16    38    1
    42    17    39    1
    43    18    40    1
    44    20    41    1
    45    21    42    1
    46    22    43    1
    47    24    44    1
    48    25    45    1
    49    26    46    1
    50    27    47    1
    51    27    48    1
    52    28    49    1
    53    29    50    1
    54    31    51    1
    55    32    52    1
    56    33    53    1
@<TRIPOS>MOLECULE
150
 21 22 0 0 0
SMALL
GASTEIGER

@<TRIPOS>ATOM
      1 O           3.1463   -0.6478   -0.0171 O.2     1  UNL1       -0.2464
      2 C           1.9449   -0.4684   -0.0110 C.ar    1  UNL1        0.3307
      3 N           1.3681    0.7667   -0.0142 N.ar    1  UNL1       -0.2797
      4 N           1.0998   -1.5220   -0.0010 N.ar    1  UNL1       -0.2731
      5 C          -0.0090    0.9630   -0.0085 C.ar    1  UNL1        0.1678
      6 C           2.1887    1.9888   -0.0236 C.3     1  UNL1        0.0181
      7 C          -0.2496   -1.5081    0.0078 C.ar    1  UNL1        0.2798
      8 N          -0.9633    1.5361   -0.0069 N.ar    1  UNL1       -0.2177
      9 C          -0.8211   -0.1472    0.0045 C.ar    1  UNL1        0.1510
     10 O          -0.8808   -2.5457    0.0167 O.2     1  UNL1       -0.2654
     11 C          -2.0403    1.8164   -0.0015 C.ar    1  UNL1        0.0986
     12 N          -2.0474    0.4474    0.0122 N.ar    1  UNL1       -0.3277
     13 C          -3.3041   -0.3090    0.0393 C.3     1  UNL1        0.0135
     14 H           1.5306   -2.4328    0.0010 H       1  UNL1        0.1735
     15 H           3.2563    1.7563   -0.0040 H       1  UNL1        0.0458
     16 H           1.9425    2.5930    0.8538 H       1  UNL1        0.0458
     17 H           1.9672    2.5625   -0.9274 H       1  UNL1        0.0458
     18 H          -2.9453    2.4055    0.0017 H       1  UNL1        0.1029
     19 H          -3.1099   -1.3837    0.0454 H       1  UNL1        0.0456
     20 H          -3.8977   -0.0605   -0.8445 H       1  UNL1        0.0456
     21 H          -3.8672   -0.0452    0.9386 H       1  UNL1        0.0456
@<TRIPOS>BOND
     1     1     2    2
     2     2     3   ar
     3     2     4   ar
     4     3     5   ar
     5     3     6    1
     6     4     7   ar
     7     5     8   ar
     8     5     9   ar
     9     7    10    2
    10     8    11   ar
    11     9    12   ar
    12    12    13    1
    13     7     9   ar
    14    11    12   ar
    15     4    14    1
    16     6    15    1
    17     6    16    1
    18     6    17    1
    19    11    18    1
    20    13    19    1
    21    13    20    1
    22    13    21    1
@<TRIPOS>MOLECULE
151
 32 34 0 0 0
SMALL
GASTEIGER

@<TRIPOS>ATOM
      1 O           2.1165   -1.7575    0.0043 O.2     1  UNL1       -0.2830
      2 C           1.6500   -0.6315   -0.0135 C.ar    1  UNL1        0.2379
      3 C           2.4916    0.5948   -0.0510 C.ar    1  UNL1        0.2082
      4 C           0.2041   -0.3442   -0.0055 C.ar    1  UNL1        0.1092
      5 O           3.8128    0.2735   -0.0676 O.3     1  UNL1       -0.5007
      6 C           1.9982    1.6159   -0.0743 C.ar    1  UNL1        0.1807
      7 C          -0.1337    0.9917   -0.0301 C.ar    1  UNL1        0.1465
      8 C          -0.8621   -1.3226    0.0156 C.ar    1  UNL1        0.1348
      9 O           0.9091    1.9182   -0.0693 O.2     1  UNL1       -0.4507
     10 C           2.7793    2.9090   -0.1116 C.ar    1  UNL1        0.0247
     11 C          -1.5350    1.3773   -0.0257 C.ar    1  UNL1        0.0231
     12 O          -0.5731   -2.6481    0.0308 O.3     1  UNL1       -0.5058
     13 C          -2.1950   -0.9406    0.0108 C.ar    1  UNL1        0.0223
     14 C           3.1361    3.5019   -1.3393 C.ar    1  UNL1       -0.0057
     15 C           3.2237    3.5131    1.0809 C.ar    1  UNL1       -0.0473
     16 C          -2.5418    0.4019   -0.0082 C.ar    1  UNL1        0.1239
     17 C           3.9132    4.6651   -1.3628 C.ar    1  UNL1        0.1589
     18 C           3.9986    4.6751    1.0424 C.ar    1  UNL1       -0.0159
     19 O          -3.8788    0.6936   -0.0074 O.3     1  UNL1       -0.5065
     20 O           4.2821    5.2548   -2.5380 O.3     1  UNL1       -0.5033
     21 C           4.3461    5.2494   -0.1785 C.ar    1  UNL1        0.1583
     22 O           5.1210    6.3746   -0.2451 O.3     1  UNL1       -0.5033
     23 H           3.8715   -0.7134   -0.0363 H       1  UNL1        0.2924
     24 H          -1.7900    2.4342   -0.0348 H       1  UNL1        0.0691
     25 H           0.3983   -2.7131    0.0250 H       1  UNL1        0.2922
     26 H          -2.9740   -1.7007    0.0224 H       1  UNL1        0.0691
     27 H           2.8175    3.0501   -2.2752 H       1  UNL1        0.0662
     28 H           2.9777    3.0737    2.0441 H       1  UNL1        0.0626
     29 H           4.3417    5.1276    1.9697 H       1  UNL1        0.0655
     30 H          -4.0708    1.6410   -0.0282 H       1  UNL1        0.2921
     31 H           3.9743    4.7249   -3.2835 H       1  UNL1        0.2923
     32 H           5.2695    6.5857   -1.1996 H       1  UNL1        0.2923
@<TRIPOS>BOND
     1     1     2    2
     2     2     3   ar
     3     2     4   ar
     4     3     5    1
     5     3     6   ar
     6     4     7   ar
     7     4     8   ar
     8     6     9   ar
     9     6    10    1
    10     7    11   ar
    11     8    12    1
    12     8    13   ar
    13    10    14   ar
    14    10    15   ar
    15    11    16   ar
    16    14    17   ar
    17    15    18   ar
    18    16    19    1
    19    17    20    1
    20    17    21   ar
    21    21    22    1
    22     7     9   ar
    23    13    16   ar
    24    18    21   ar
    25     5    23    1
    26    11    24    1
    27    12    25    1
    28    13    26    1
    29    14    27    1
    30    15    28    1
    31    18    29    1
    32    19    30    1
    33    20    31    1
    34    22    32    1
@<TRIPOS>MOLECULE
152
 31 33 0 0 0
SMALL
GASTEIGER

@<TRIPOS>ATOM
      1 O          -2.5090    1.5478   -0.0250 O.2     1  UNL1       -0.2869
      2 C          -1.9349    0.4756    0.0024 C.ar    1  UNL1        0.1966
      3 C          -0.4751    0.3065    0.0303 C.ar    1  UNL1        0.1055
      4 C          -2.6394   -0.8249   -0.0303 C.ar    1  UNL1        0.0288
      5 C          -0.0430   -1.0013    0.0137 C.ar    1  UNL1        0.1462
      6 C           0.5150    1.3619    0.0327 C.ar    1  UNL1        0.1347
      7 C          -2.1452   -1.8423   -0.0138 C.ar    1  UNL1        0.1393
      8 O          -1.0241   -1.9939   -0.0373 O.2     1  UNL1       -0.4544
      9 C           1.3766   -1.2895    0.0018 C.ar    1  UNL1        0.0231
     10 O           0.1272    2.6650    0.0364 O.3     1  UNL1       -0.5058
     11 C           1.8723    1.0718    0.0125 C.ar    1  UNL1        0.0223
     12 C          -2.9965   -3.0998   -0.0799 C.ar    1  UNL1        0.0211
     13 C           2.3096   -0.2461   -0.0014 C.ar    1  UNL1        0.1239
     14 C          -4.3202   -3.1299    0.4216 C.ar    1  UNL1       -0.0059
     15 C          -2.4946   -4.2722   -0.6818 C.ar    1  UNL1       -0.0474
     16 O           3.6573   -0.4670   -0.0173 O.3     1  UNL1       -0.5065
     17 C          -5.1154   -4.2680    0.2813 C.ar    1  UNL1        0.1589
     18 C          -3.2964   -5.4072   -0.8122 C.ar    1  UNL1       -0.0159
     19 O          -6.4063   -4.2863    0.7377 O.3     1  UNL1       -0.5033
     20 C          -4.6070   -5.4018   -0.3431 C.ar    1  UNL1        0.1583
     21 O          -5.4119   -6.4923   -0.4933 O.3     1  UNL1       -0.5033
     22 H          -3.7098   -0.7072   -0.1589 H       1  UNL1        0.0693
     23 H           1.7047   -2.3260   -0.0033 H       1  UNL1        0.0691
     24 H          -0.8485    2.6695    0.0175 H       1  UNL1        0.2922
     25 H           2.5980    1.8829    0.0060 H       1  UNL1        0.0691
     26 H          -4.7479   -2.2652    0.9219 H       1  UNL1        0.0662
     27 H          -1.4827   -4.3011   -1.0790 H       1  UNL1        0.0626
     28 H           3.8715   -1.4102   -0.0404 H       1  UNL1        0.2921
     29 H          -2.8993   -6.2957   -1.2972 H       1  UNL1        0.0655
     30 H          -6.6462   -3.4358    1.1449 H       1  UNL1        0.2923
     31 H          -6.2939   -6.2566   -0.1278 H       1  UNL1        0.2923
@<TRIPOS>BOND
     1     1     2    2
     2     2     3   ar
     3     2     4   ar
     4     3     5   ar
     5     3     6   ar
     6     4     7   ar
     7     5     8   ar
     8     5     9   ar
     9     6    10    1
    10     6    11   ar
    11     7    12    1
    12     9    13   ar
    13    12    14   ar
    14    12    15   ar
    15    13    16    1
    16    14    17   ar
    17    15    18   ar
    18    17    19    1
    19    17    20   ar
    20    20    21    1
    21     7     8   ar
    22    11    13   ar
    23    18    20   ar
    24     4    22    1
    25     9    23    1
    26    10    24    1
    27    11    25    1
    28    14    26    1
    29    15    27    1
    30    16    28    1
    31    18    29    1
    32    19    30    1
    33    21    31    1
