
##########                                Name:                   4
##########                DOCK_Rotatable_Bonds:                   2
##########                         Heavy_Atoms:                   8
##########                    Molecular_Weight:             110.112
##########                       Formal_Charge:        -2.98023e-08
##########                     HBond_Acceptors:                   2
##########                        HBond_Donors:                   2
##########                    Descriptor_Score:           38.462769
##########          Footprint_Similarity_Score:           11.085063
##########                 desc_FPS_vdw_energy:          -17.465673
##########                  desc_FPS_es_energy:           -2.461567
##########              desc_FPS_vdw+es_energy:          -19.927240
##########                  desc_FPS_num_hbond:                   2
##########                    desc_FPS_vdw_fps:            8.375106
##########                     desc_FPS_es_fps:            2.709957
##########                     desc_FPS_hb_fps:            2.000000
##########              desc_FPS_vdw_fp_numres:                 219
##########               desc_FPS_es_fp_numres:                 219
##########               desc_FPS_hb_fp_numres:                 219
##########                 Pharmacophore_Score:           20.000000
##########              desc_FMS_num_match_tot:                   0
##########              desc_FMS_max_match_ref:                  10
##########              desc_FMS_max_match_mol:                   5
##########                 desc_FMS_match_rate:            4.000000
##########                desc_FMS_match_resid:            0.000000
##########    desc_FMS_num_hydrophobic_matched:                   0
##########          desc_FMS_num_donor_matched:                   0
##########       desc_FMS_num_acceptor_matched:                   0
##########       desc_FMS_num_aromatic_matched:                   0
##########       desc_FMS_num_positive_matched:                   0
##########       desc_FMS_num_negative_matched:                   0
##########           desc_FMS_num_ring_matched:                   0
########## Hungarian_Matching_Similarity_Score:            7.377704
##########       desc_HMS_num_unmtchd_hvy_atms:                  17
##########           desc_HMS_num_ref_hvy_atms:                  23
##########        desc_HMS_rmsd_mtchd_hvy_atms:            8.682052
##########               Property_Volume_Score:            0.000000
##########               desc_VOS_geometric_vo:            0.000000
##########                desc_VOS_hvy_atom_vo:            0.000000
##########            desc_VOS_pos_chrg_atm_vo:            0.000000
##########            desc_VOS_neg_chrg_atm_vo:            0.000000
##########         desc_VOS_hydrophobic_atm_vo:            0.000000
##########         desc_VOS_hydrophilic_atm_vo:            0.000000
##########           Internal_energy_repulsive:            0.079667

@<TRIPOS>MOLECULE
4
 14 14 1 0 0
SMALL
GASTEIGER


@<TRIPOS>ATOM
      1 O          22.0158    6.8225   39.7088 O.3     1  UNL1       -0.5033
      2 C          22.3771    8.0445   40.1971 C.ar    1  UNL1        0.1582
      3 C          22.0954    8.3925   41.5215 C.ar    1  UNL1        0.1582
      4 C          23.0016    8.9637   39.3547 C.ar    1  UNL1       -0.0165
      5 O          21.5393    7.4835   42.3740 O.3     1  UNL1       -0.5033
      6 C          22.4156    9.6666   41.9888 C.ar    1  UNL1       -0.0165
      7 C          23.3291   10.2338   39.8269 C.ar    1  UNL1       -0.0581
      8 C          23.0313   10.5870   41.1420 C.ar    1  UNL1       -0.0581
      9 H          21.6600    6.2801   40.4363 H       1  UNL1        0.2923
     10 H          23.2226    8.6951   38.3244 H       1  UNL1        0.0655
     11 H          21.3908    6.6468   41.8963 H       1  UNL1        0.2923
     12 H          22.1966    9.9398   43.0184 H       1  UNL1        0.0655
     13 H          23.8116   10.9505   39.1669 H       1  UNL1        0.0619
     14 H          23.2844   11.5783   41.5099 H       1  UNL1        0.0619
@<TRIPOS>BOND
     1     1     2    1
     2     2     3   ar
     3     2     4   ar
     4     3     5    1
     5     3     6   ar
     6     4     7   ar
     7     6     8   ar
     8     7     8   ar
     9     1     9    1
    10     4    10    1
    11     5    11    1
    12     6    12    1
    13     7    13    1
    14     8    14    1
@<TRIPOS>SUBSTRUCTURE
     1 UNL1        1 TEMP              0 ****  ****    0 ROOT


##########                                Name:                   4
##########                DOCK_Rotatable_Bonds:                   2
##########                         Heavy_Atoms:                   8
##########                    Molecular_Weight:             110.112
##########                       Formal_Charge:        -2.98023e-08
##########                     HBond_Acceptors:                   2
##########                        HBond_Donors:                   2
##########                    Descriptor_Score:           38.713699
##########          Footprint_Similarity_Score:           11.132510
##########                 desc_FPS_vdw_energy:          -16.725086
##########                  desc_FPS_es_energy:           -2.558973
##########              desc_FPS_vdw+es_energy:          -19.284060
##########                  desc_FPS_num_hbond:                   3
##########                    desc_FPS_vdw_fps:            8.326388
##########                     desc_FPS_es_fps:            2.806122
##########                     desc_FPS_hb_fps:            2.236068
##########              desc_FPS_vdw_fp_numres:                 219
##########               desc_FPS_es_fp_numres:                 219
##########               desc_FPS_hb_fp_numres:                 219
##########                 Pharmacophore_Score:           20.000000
##########              desc_FMS_num_match_tot:                   0
##########              desc_FMS_max_match_ref:                  10
##########              desc_FMS_max_match_mol:                   5
##########                 desc_FMS_match_rate:            4.000000
##########                desc_FMS_match_resid:            0.000000
##########    desc_FMS_num_hydrophobic_matched:                   0
##########          desc_FMS_num_donor_matched:                   0
##########       desc_FMS_num_acceptor_matched:                   0
##########       desc_FMS_num_aromatic_matched:                   0
##########       desc_FMS_num_positive_matched:                   0
##########       desc_FMS_num_negative_matched:                   0
##########           desc_FMS_num_ring_matched:                   0
########## Hungarian_Matching_Similarity_Score:            7.581188
##########       desc_HMS_num_unmtchd_hvy_atms:                  17
##########           desc_HMS_num_ref_hvy_atms:                  23
##########        desc_HMS_rmsd_mtchd_hvy_atms:            8.885536
##########               Property_Volume_Score:            0.000000
##########               desc_VOS_geometric_vo:            0.000000
##########                desc_VOS_hvy_atom_vo:            0.000000
##########            desc_VOS_pos_chrg_atm_vo:            0.000000
##########            desc_VOS_neg_chrg_atm_vo:            0.000000
##########         desc_VOS_hydrophobic_atm_vo:            0.000000
##########         desc_VOS_hydrophilic_atm_vo:            0.000000
##########           Internal_energy_repulsive:            0.079675

@<TRIPOS>MOLECULE
4
 14 14 1 0 0
SMALL
GASTEIGER


@<TRIPOS>ATOM
      1 O          21.5939    7.4698   42.2677 O.3     1  UNL1       -0.5033
      2 C          22.1821    8.3096   41.3673 C.ar    1  UNL1        0.1582
      3 C          22.4362    7.8849   40.0598 C.ar    1  UNL1        0.1582
      4 C          22.5627    9.5897   41.7686 C.ar    1  UNL1       -0.0165
      5 O          22.0163    6.6578   39.6354 O.3     1  UNL1       -0.5033
      6 C          23.0929    8.7327   39.1686 C.ar    1  UNL1       -0.0165
      7 C          23.2108   10.4389   40.8730 C.ar    1  UNL1       -0.0581
      8 C          23.4808   10.0085   39.5750 C.ar    1  UNL1       -0.0581
      9 H          21.4455    6.6032   41.8469 H       1  UNL1        0.2923
     10 H          22.3653    9.9228   42.7848 H       1  UNL1        0.0655
     11 H          21.6101    6.1829   40.3835 H       1  UNL1        0.2923
     12 H          23.2924    8.4042   38.1513 H       1  UNL1        0.0655
     13 H          23.5109   11.4348   41.1896 H       1  UNL1        0.0619
     14 H          23.9885   10.6696   38.8769 H       1  UNL1        0.0619
@<TRIPOS>BOND
     1     1     2    1
     2     2     3   ar
     3     2     4   ar
     4     3     5    1
     5     3     6   ar
     6     4     7   ar
     7     6     8   ar
     8     7     8   ar
     9     1     9    1
    10     4    10    1
    11     5    11    1
    12     6    12    1
    13     7    13    1
    14     8    14    1
@<TRIPOS>SUBSTRUCTURE
     1 UNL1        1 TEMP              0 ****  ****    0 ROOT


##########                                Name:                   4
##########                DOCK_Rotatable_Bonds:                   2
##########                         Heavy_Atoms:                   8
##########                    Molecular_Weight:             110.112
##########                       Formal_Charge:        -2.98023e-08
##########                     HBond_Acceptors:                   2
##########                        HBond_Donors:                   2
##########                    Descriptor_Score:           38.299850
##########          Footprint_Similarity_Score:           10.756495
##########                 desc_FPS_vdw_energy:          -17.058395
##########                  desc_FPS_es_energy:           -2.243089
##########              desc_FPS_vdw+es_energy:          -19.301483
##########                  desc_FPS_num_hbond:                   1
##########                    desc_FPS_vdw_fps:            8.287106
##########                     desc_FPS_es_fps:            2.469390
##########                     desc_FPS_hb_fps:            1.000000
##########              desc_FPS_vdw_fp_numres:                 219
##########               desc_FPS_es_fp_numres:                 219
##########               desc_FPS_hb_fp_numres:                 219
##########                 Pharmacophore_Score:           20.000000
##########              desc_FMS_num_match_tot:                   0
##########              desc_FMS_max_match_ref:                  10
##########              desc_FMS_max_match_mol:                   5
##########                 desc_FMS_match_rate:            4.000000
##########                desc_FMS_match_resid:            0.000000
##########    desc_FMS_num_hydrophobic_matched:                   0
##########          desc_FMS_num_donor_matched:                   0
##########       desc_FMS_num_acceptor_matched:                   0
##########       desc_FMS_num_aromatic_matched:                   0
##########       desc_FMS_num_positive_matched:                   0
##########       desc_FMS_num_negative_matched:                   0
##########           desc_FMS_num_ring_matched:                   0
########## Hungarian_Matching_Similarity_Score:            7.543356
##########       desc_HMS_num_unmtchd_hvy_atms:                  17
##########           desc_HMS_num_ref_hvy_atms:                  23
##########        desc_HMS_rmsd_mtchd_hvy_atms:            8.847704
##########               Property_Volume_Score:            0.000000
##########               desc_VOS_geometric_vo:            0.000000
##########                desc_VOS_hvy_atom_vo:            0.000000
##########            desc_VOS_pos_chrg_atm_vo:            0.000000
##########            desc_VOS_neg_chrg_atm_vo:            0.000000
##########         desc_VOS_hydrophobic_atm_vo:            0.000000
##########         desc_VOS_hydrophilic_atm_vo:            0.000000
##########           Internal_energy_repulsive:            0.079680

@<TRIPOS>MOLECULE
4
 14 14 1 0 0
SMALL
GASTEIGER


@<TRIPOS>ATOM
      1 O          22.5858    9.9902   42.7547 O.3     1  UNL1       -0.5033
      2 C          22.5320    9.4449   41.5049 C.ar    1  UNL1        0.1582
      3 C          22.0127    8.1615   41.3109 C.ar    1  UNL1        0.1582
      4 C          23.0320   10.1637   40.4196 C.ar    1  UNL1       -0.0165
      5 O          21.4656    7.4701   42.3525 O.3     1  UNL1       -0.5033
      6 C          22.0204    7.5935   40.0376 C.ar    1  UNL1       -0.0165
      7 C          23.0301    9.5973   39.1459 C.ar    1  UNL1       -0.0581
      8 C          22.5294    8.3104   38.9559 C.ar    1  UNL1       -0.0581
      9 H          22.9893   10.8758   42.7000 H       1  UNL1        0.2923
     10 H          23.4356   11.1626   40.5678 H       1  UNL1        0.0655
     11 H          21.1568    6.6025   42.0330 H       1  UNL1        0.2923
     12 H          21.6178    6.5949   39.8844 H       1  UNL1        0.0655
     13 H          23.4249   10.1578   38.3020 H       1  UNL1        0.0619
     14 H          22.5301    7.8673   37.9629 H       1  UNL1        0.0619
@<TRIPOS>BOND
     1     1     2    1
     2     2     3   ar
     3     2     4   ar
     4     3     5    1
     5     3     6   ar
     6     4     7   ar
     7     6     8   ar
     8     7     8   ar
     9     1     9    1
    10     4    10    1
    11     5    11    1
    12     6    12    1
    13     7    13    1
    14     8    14    1
@<TRIPOS>SUBSTRUCTURE
     1 UNL1        1 TEMP              0 ****  ****    0 ROOT


##########                                Name:                   5
##########                DOCK_Rotatable_Bonds:                  12
##########                         Heavy_Atoms:                  35
##########                    Molecular_Weight:             492.393
##########                       Formal_Charge:         -9.9659e-05
##########                     HBond_Acceptors:                  13
##########                        HBond_Donors:                   9
##########                    Descriptor_Score:           15.213195
##########          Footprint_Similarity_Score:            7.956476
##########                 desc_FPS_vdw_energy:          -40.376213
##########                  desc_FPS_es_energy:           -5.657952
##########              desc_FPS_vdw+es_energy:          -46.034164
##########                  desc_FPS_num_hbond:                   3
##########                    desc_FPS_vdw_fps:            5.309554
##########                     desc_FPS_es_fps:            2.646922
##########                     desc_FPS_hb_fps:            1.732051
##########              desc_FPS_vdw_fp_numres:                 219
##########               desc_FPS_es_fp_numres:                 219
##########               desc_FPS_hb_fp_numres:                 219
##########                 Pharmacophore_Score:            4.913932
##########              desc_FMS_num_match_tot:                   2
##########              desc_FMS_max_match_ref:                  10
##########              desc_FMS_max_match_mol:                  27
##########                 desc_FMS_match_rate:            0.800000
##########                desc_FMS_match_resid:            0.913932
##########    desc_FMS_num_hydrophobic_matched:                   0
##########          desc_FMS_num_donor_matched:                   1
##########       desc_FMS_num_acceptor_matched:                   1
##########       desc_FMS_num_aromatic_matched:                   0
##########       desc_FMS_num_positive_matched:                   0
##########       desc_FMS_num_negative_matched:                   0
##########           desc_FMS_num_ring_matched:                   0
########## Hungarian_Matching_Similarity_Score:            2.622036
##########       desc_HMS_num_unmtchd_hvy_atms:                  22
##########           desc_HMS_num_ref_hvy_atms:                  23
##########        desc_HMS_rmsd_mtchd_hvy_atms:            2.839428
##########               Property_Volume_Score:            0.279249
##########               desc_VOS_geometric_vo:            0.484172
##########                desc_VOS_hvy_atom_vo:            0.459868
##########            desc_VOS_pos_chrg_atm_vo:            0.159409
##########            desc_VOS_neg_chrg_atm_vo:            0.196930
##########         desc_VOS_hydrophobic_atm_vo:            0.289271
##########         desc_VOS_hydrophilic_atm_vo:            0.085843
##########           Internal_energy_repulsive:           25.895599

@<TRIPOS>MOLECULE
5
 55 58 1 0 0
SMALL
GASTEIGER


@<TRIPOS>ATOM
      1 O          12.2127   16.5519   44.0614 O.2     1  UNL1       -0.2865
      2 C          12.6702   15.4315   44.1425 C.2     1  UNL1        0.1984
      3 C          11.7424   14.2482   43.9031 C.ar    1  UNL1        0.0785
      4 C          14.1524   15.2175   44.3967 C.ar    1  UNL1        0.0371
      5 C          10.3424   14.4201   43.8244 C.ar    1  UNL1        0.1378
      6 C          12.2685   12.9605   43.7477 C.ar    1  UNL1        0.0816
      7 C          14.6387   13.9160   44.2280 C.ar    1  UNL1        0.0369
      8 C          15.0637   16.2577   44.7691 C.ar    1  UNL1       -0.0215
      9 O           9.7679   15.6353   44.1051 O.3     1  UNL1       -0.5055
     10 C           9.4751   13.3571   43.5227 C.ar    1  UNL1        0.0708
     11 C          13.7526   12.7524   43.8849 C.2     1  UNL1        0.1984
     12 C          11.3983   11.8876   43.4628 C.ar    1  UNL1        0.1705
     13 C          15.9973   13.6650   44.3701 C.ar    1  UNL1       -0.0078
     14 C          16.4659   16.0009   44.8530 C.ar    1  UNL1        0.1037
     15 C          14.5624   17.6517   45.1836 C.3     1  UNL1       -0.0381
     16 C          10.0226   12.0790   43.3402 C.ar    1  UNL1        0.1684
     17 C           7.9795   13.7100   43.3952 C.3     1  UNL1        0.1194
     18 O          14.2542   11.6526   43.7448 O.2     1  UNL1       -0.2865
     19 O          11.8549   10.6065   43.3073 O.3     1  UNL1       -0.5028
     20 C          16.8945   14.6753   44.6648 C.ar    1  UNL1        0.1318
     21 C          17.5121   17.1012   45.1190 C.2     1  UNL1        0.3406
     22 O           9.2523   10.9777   43.0828 O.3     1  UNL1       -0.5030
     23 O           7.4734   13.0677   42.1940 O.3     1  UNL1       -0.3609
     24 C           6.9588   13.3805   44.5077 C.3     1  UNL1        0.1139
     25 O          18.2000   14.3021   44.7616 O.3     1  UNL1       -0.5059
     26 O          18.1877   17.6464   44.2710 O.2     1  UNL1       -0.2450
     27 O          17.7399   17.4390   46.3671 O.3     1  UNL1       -0.4770
     28 C           6.2709   13.6745   41.6639 C.3     1  UNL1        0.1108
     29 O           7.3979   13.8727   45.7779 O.3     1  UNL1       -0.3862
     30 C           5.6211   14.0538   44.0994 C.3     1  UNL1        0.1121
     31 C           5.1352   13.5408   42.7162 C.3     1  UNL1        0.1117
     32 C           5.9656   12.9999   40.3093 C.3     1  UNL1        0.0729
     33 O           4.6166   13.8000   45.0762 O.3     1  UNL1       -0.3865
     34 O           4.7101   12.1757   42.8255 O.3     1  UNL1       -0.3865
     35 O           6.3963   11.6403   40.3262 O.3     1  UNL1       -0.3924
     36 H           8.8024   15.5141   44.2256 H       1  UNL1        0.2922
     37 H          16.3836   12.6564   44.2355 H       1  UNL1        0.0661
     38 H          13.5293   17.6892   45.5114 H       1  UNL1        0.0278
     39 H          14.7066   18.3707   44.3730 H       1  UNL1        0.0278
     40 H          15.0893   18.0033   46.0707 H       1  UNL1        0.0278
     41 H           7.9260   14.7932   43.2459 H       1  UNL1        0.0676
     42 H          12.3103   10.3262   44.1203 H       1  UNL1        0.2923
     43 H           8.3288   11.2647   42.8775 H       1  UNL1        0.2923
     44 H           6.8255   12.2959   44.5717 H       1  UNL1        0.0649
     45 H          18.7589   14.9754   44.3752 H       1  UNL1        0.2922
     46 H          16.8863   17.3042   46.8804 H       1  UNL1        0.2954
     47 H           6.4734   14.7346   41.4819 H       1  UNL1        0.0646
     48 H           8.0189   13.2448   46.1596 H       1  UNL1        0.2100
     49 H           5.7739   15.1352   44.0360 H       1  UNL1        0.0647
     50 H           4.2820   14.1466   42.3976 H       1  UNL1        0.0647
     51 H           6.4655   13.5332   39.4959 H       1  UNL1        0.0584
     52 H           4.8873   13.0305   40.1308 H       1  UNL1        0.0584
     53 H           3.7786   14.0812   44.6685 H       1  UNL1        0.2100
     54 H           4.0748   12.1171   43.5616 H       1  UNL1        0.2100
     55 H           6.2480   11.2761   39.4356 H       1  UNL1        0.2095
@<TRIPOS>BOND
     1     1     2    2
     2     2     3    1
     3     2     4    1
     4     3     5   ar
     5     3     6   ar
     6     4     7   ar
     7     4     8   ar
     8     5     9    1
     9     5    10   ar
    10     6    11    1
    11     6    12   ar
    12     7    13   ar
    13     8    14   ar
    14     8    15    1
    15    10    16   ar
    16    10    17    1
    17    11    18    2
    18    12    19    1
    19    13    20   ar
    20    14    21    1
    21    16    22    1
    22    17    23    1
    23    17    24    1
    24    20    25    1
    25    21    26    2
    26    21    27    1
    27    23    28    1
    28    24    29    1
    29    24    30    1
    30    28    31    1
    31    28    32    1
    32    30    33    1
    33    31    34    1
    34    32    35    1
    35     7    11    1
    36    12    16   ar
    37    14    20   ar
    38    30    31    1
    39     9    36    1
    40    13    37    1
    41    15    38    1
    42    15    39    1
    43    15    40    1
    44    17    41    1
    45    19    42    1
    46    22    43    1
    47    24    44    1
    48    25    45    1
    49    27    46    1
    50    28    47    1
    51    29    48    1
    52    30    49    1
    53    31    50    1
    54    32    51    1
    55    32    52    1
    56    33    53    1
    57    34    54    1
    58    35    55    1
@<TRIPOS>SUBSTRUCTURE
     1 UNL1        1 TEMP              0 ****  ****    0 ROOT


##########                                Name:                   5
##########                DOCK_Rotatable_Bonds:                  12
##########                         Heavy_Atoms:                  35
##########                    Molecular_Weight:             492.393
##########                       Formal_Charge:         -9.9659e-05
##########                     HBond_Acceptors:                  13
##########                        HBond_Donors:                   9
##########                    Descriptor_Score:           15.515972
##########          Footprint_Similarity_Score:            8.371803
##########                 desc_FPS_vdw_energy:          -40.416706
##########                  desc_FPS_es_energy:           -5.702999
##########              desc_FPS_vdw+es_energy:          -46.119705
##########                  desc_FPS_num_hbond:                   2
##########                    desc_FPS_vdw_fps:            5.223558
##########                     desc_FPS_es_fps:            3.148245
##########                     desc_FPS_hb_fps:            1.414214
##########              desc_FPS_vdw_fp_numres:                 219
##########               desc_FPS_es_fp_numres:                 219
##########               desc_FPS_hb_fp_numres:                 219
##########                 Pharmacophore_Score:            4.873463
##########              desc_FMS_num_match_tot:                   2
##########              desc_FMS_max_match_ref:                  10
##########              desc_FMS_max_match_mol:                  27
##########                 desc_FMS_match_rate:            0.800000
##########                desc_FMS_match_resid:            0.873463
##########    desc_FMS_num_hydrophobic_matched:                   0
##########          desc_FMS_num_donor_matched:                   1
##########       desc_FMS_num_acceptor_matched:                   1
##########       desc_FMS_num_aromatic_matched:                   0
##########       desc_FMS_num_positive_matched:                   0
##########       desc_FMS_num_negative_matched:                   0
##########           desc_FMS_num_ring_matched:                   0
########## Hungarian_Matching_Similarity_Score:            2.553594
##########       desc_HMS_num_unmtchd_hvy_atms:                  22
##########           desc_HMS_num_ref_hvy_atms:                  23
##########        desc_HMS_rmsd_mtchd_hvy_atms:            2.770985
##########               Property_Volume_Score:            0.282888
##########               desc_VOS_geometric_vo:            0.489292
##########                desc_VOS_hvy_atom_vo:            0.465975
##########            desc_VOS_pos_chrg_atm_vo:            0.157661
##########            desc_VOS_neg_chrg_atm_vo:            0.201017
##########         desc_VOS_hydrophobic_atm_vo:            0.298296
##########         desc_VOS_hydrophilic_atm_vo:            0.085085
##########           Internal_energy_repulsive:           25.953161

@<TRIPOS>MOLECULE
5
 55 58 1 0 0
SMALL
GASTEIGER


@<TRIPOS>ATOM
      1 O          12.1372   16.5694   44.0499 O.2     1  UNL1       -0.2865
      2 C          12.5829   15.4432   44.1144 C.2     1  UNL1        0.1984
      3 C          11.6372   14.2725   43.8834 C.ar    1  UNL1        0.0785
      4 C          14.0669   15.2102   44.3396 C.ar    1  UNL1        0.0371
      5 C          10.2380   14.4612   43.8318 C.ar    1  UNL1        0.1378
      6 C          12.1452   12.9801   43.7089 C.ar    1  UNL1        0.0816
      7 C          14.5348   13.9045   44.1524 C.ar    1  UNL1        0.0369
      8 C          14.9970   16.2370   44.7028 C.ar    1  UNL1       -0.0215
      9 O           9.6830   15.6808   44.1320 O.3     1  UNL1       -0.5055
     10 C           9.3530   13.4107   43.5383 C.ar    1  UNL1        0.0708
     11 C          13.6290   12.7539   43.8172 C.2     1  UNL1        0.1984
     12 C          11.2574   11.9195   43.4322 C.ar    1  UNL1        0.1705
     13 C          15.8928   13.6367   44.2676 C.ar    1  UNL1       -0.0078
     14 C          16.3974   15.9633   44.7590 C.ar    1  UNL1        0.1037
     15 C          14.5198   17.6335   45.1367 C.3     1  UNL1       -0.0381
     16 C           9.8820   12.1278   43.3363 C.ar    1  UNL1        0.1684
     17 C           7.8596   13.7817   43.4410 C.3     1  UNL1        0.1194
     18 O          14.1151   11.6494   43.6597 O.2     1  UNL1       -0.2865
     19 O          11.6961   10.6344   43.2588 O.3     1  UNL1       -0.5028
     20 C          16.8069   14.6343   44.5532 C.ar    1  UNL1        0.1318
     21 C          17.4612   17.0494   45.0137 C.2     1  UNL1        0.3406
     22 O           9.0943   11.0374   43.0851 O.3     1  UNL1       -0.5030
     23 O           7.3309   13.1784   42.2293 O.3     1  UNL1       -0.3609
     24 C           6.8503   13.4313   44.5576 C.3     1  UNL1        0.1139
     25 O          18.1096   14.2454   44.6231 O.3     1  UNL1       -0.5059
     26 O          17.7137   17.9725   44.2675 O.2     1  UNL1       -0.2450
     27 O          18.1994   16.9402   46.0938 O.3     1  UNL1       -0.4770
     28 C           6.1278   13.8116   41.7327 C.3     1  UNL1        0.1108
     29 O           7.3113   13.8834   45.8349 O.3     1  UNL1       -0.3862
     30 C           5.5144   14.1290   44.1865 C.3     1  UNL1        0.1121
     31 C           5.0049   13.6598   42.7962 C.3     1  UNL1        0.1117
     32 C           5.7977   13.1784   40.3640 C.3     1  UNL1        0.0729
     33 O           4.5203   13.8579   45.1693 O.3     1  UNL1       -0.3865
     34 O           4.5673   12.2964   42.8731 O.3     1  UNL1       -0.3865
     35 O           6.3654   11.8731   40.2737 O.3     1  UNL1       -0.3924
     36 H           8.7975   15.7422   43.7155 H       1  UNL1        0.2922
     37 H          16.2647   12.6248   44.1185 H       1  UNL1        0.0661
     38 H          13.4934   17.6804   45.4838 H       1  UNL1        0.0278
     39 H          14.6575   18.3568   44.3289 H       1  UNL1        0.0278
     40 H          15.0669   17.9723   46.0165 H       1  UNL1        0.0278
     41 H           7.8152   14.8691   43.3227 H       1  UNL1        0.0676
     42 H          12.2878   10.3945   43.9932 H       1  UNL1        0.2923
     43 H           8.5016   10.8761   43.8598 H       1  UNL1        0.2923
     44 H           6.7068   12.3467   44.5931 H       1  UNL1        0.0649
     45 H          18.6772   15.0152   44.6374 H       1  UNL1        0.2922
     46 H          18.6752   17.8153   46.2282 H       1  UNL1        0.2954
     47 H           6.3387   14.8744   41.5776 H       1  UNL1        0.0646
     48 H           6.9073   13.3450   46.5224 H       1  UNL1        0.2100
     49 H           5.6774   15.2102   44.1511 H       1  UNL1        0.0647
     50 H           4.1538   14.2827   42.5062 H       1  UNL1        0.0647
     51 H           6.1811   13.8024   39.5521 H       1  UNL1        0.0584
     52 H           4.7119   13.1033   40.2586 H       1  UNL1        0.0584
     53 H           4.6546   12.9291   45.4276 H       1  UNL1        0.2100
     54 H           3.7519   12.2724   43.4055 H       1  UNL1        0.2100
     55 H           5.9877   11.4444   39.4855 H       1  UNL1        0.2095
@<TRIPOS>BOND
     1     1     2    2
     2     2     3    1
     3     2     4    1
     4     3     5   ar
     5     3     6   ar
     6     4     7   ar
     7     4     8   ar
     8     5     9    1
     9     5    10   ar
    10     6    11    1
    11     6    12   ar
    12     7    13   ar
    13     8    14   ar
    14     8    15    1
    15    10    16   ar
    16    10    17    1
    17    11    18    2
    18    12    19    1
    19    13    20   ar
    20    14    21    1
    21    16    22    1
    22    17    23    1
    23    17    24    1
    24    20    25    1
    25    21    26    2
    26    21    27    1
    27    23    28    1
    28    24    29    1
    29    24    30    1
    30    28    31    1
    31    28    32    1
    32    30    33    1
    33    31    34    1
    34    32    35    1
    35     7    11    1
    36    12    16   ar
    37    14    20   ar
    38    30    31    1
    39     9    36    1
    40    13    37    1
    41    15    38    1
    42    15    39    1
    43    15    40    1
    44    17    41    1
    45    19    42    1
    46    22    43    1
    47    24    44    1
    48    25    45    1
    49    27    46    1
    50    28    47    1
    51    29    48    1
    52    30    49    1
    53    31    50    1
    54    32    51    1
    55    32    52    1
    56    33    53    1
    57    34    54    1
    58    35    55    1
@<TRIPOS>SUBSTRUCTURE
     1 UNL1        1 TEMP              0 ****  ****    0 ROOT


##########                                Name:                   5
##########                DOCK_Rotatable_Bonds:                  12
##########                         Heavy_Atoms:                  35
##########                    Molecular_Weight:             492.393
##########                       Formal_Charge:         -9.9659e-05
##########                     HBond_Acceptors:                  13
##########                        HBond_Donors:                   9
##########                    Descriptor_Score:           15.947075
##########          Footprint_Similarity_Score:            8.241383
##########                 desc_FPS_vdw_energy:          -40.161469
##########                  desc_FPS_es_energy:           -5.240631
##########              desc_FPS_vdw+es_energy:          -45.402100
##########                  desc_FPS_num_hbond:                   3
##########                    desc_FPS_vdw_fps:            5.194633
##########                     desc_FPS_es_fps:            3.046750
##########                     desc_FPS_hb_fps:            1.732051
##########              desc_FPS_vdw_fp_numres:                 219
##########               desc_FPS_es_fp_numres:                 219
##########               desc_FPS_hb_fp_numres:                 219
##########                 Pharmacophore_Score:            5.371090
##########              desc_FMS_num_match_tot:                   1
##########              desc_FMS_max_match_ref:                  10
##########              desc_FMS_max_match_mol:                  27
##########                 desc_FMS_match_rate:            0.900000
##########                desc_FMS_match_resid:            0.871090
##########    desc_FMS_num_hydrophobic_matched:                   0
##########          desc_FMS_num_donor_matched:                   0
##########       desc_FMS_num_acceptor_matched:                   1
##########       desc_FMS_num_aromatic_matched:                   0
##########       desc_FMS_num_positive_matched:                   0
##########       desc_FMS_num_negative_matched:                   0
##########           desc_FMS_num_ring_matched:                   0
########## Hungarian_Matching_Similarity_Score:            2.616038
##########       desc_HMS_num_unmtchd_hvy_atms:                  22
##########           desc_HMS_num_ref_hvy_atms:                  23
##########        desc_HMS_rmsd_mtchd_hvy_atms:            2.833430
##########               Property_Volume_Score:            0.281437
##########               desc_VOS_geometric_vo:            0.488239
##########                desc_VOS_hvy_atom_vo:            0.464138
##########            desc_VOS_pos_chrg_atm_vo:            0.159482
##########            desc_VOS_neg_chrg_atm_vo:            0.199092
##########         desc_VOS_hydrophobic_atm_vo:            0.292039
##########         desc_VOS_hydrophilic_atm_vo:            0.085630
##########           Internal_energy_repulsive:           25.727001

@<TRIPOS>MOLECULE
5
 55 58 1 0 0
SMALL
GASTEIGER


@<TRIPOS>ATOM
      1 O          12.2561   16.5583   43.9963 O.2     1  UNL1       -0.2865
      2 C          12.7084   15.4366   44.0885 C.2     1  UNL1        0.1984
      3 C          11.7737   14.2552   43.8670 C.ar    1  UNL1        0.0785
      4 C          14.1906   15.2181   44.3387 C.ar    1  UNL1        0.0371
      5 C          10.3742   14.4333   43.7923 C.ar    1  UNL1        0.1378
      6 C          12.2927   12.9632   43.7243 C.ar    1  UNL1        0.0816
      7 C          14.6696   13.9123   44.1831 C.ar    1  UNL1        0.0369
      8 C          15.1087   16.2580   44.6950 C.ar    1  UNL1       -0.0215
      9 O           9.8070   15.6545   44.0613 O.3     1  UNL1       -0.5055
     10 C           9.5003   13.3713   43.5068 C.ar    1  UNL1        0.0708
     11 C          13.7763   12.7493   43.8575 C.2     1  UNL1        0.1984
     12 C          11.4159   11.8914   43.4557 C.ar    1  UNL1        0.1705
     13 C          16.0276   13.6561   44.3223 C.ar    1  UNL1       -0.0078
     14 C          16.5099   15.9951   44.7759 C.ar    1  UNL1        0.1037
     15 C          14.6162   17.6592   45.0955 C.3     1  UNL1       -0.0381
     16 C          10.0406   12.0884   43.3368 C.ar    1  UNL1        0.1684
     17 C           8.0060   13.7301   43.3817 C.3     1  UNL1        0.1194
     18 O          14.2718   11.6455   43.7280 O.2     1  UNL1       -0.2865
     19 O          11.8655   10.6064   43.3131 O.3     1  UNL1       -0.5028
     20 C          16.9311   14.6653   44.6013 C.ar    1  UNL1        0.1318
     21 C          17.5628   17.0932   45.0244 C.2     1  UNL1        0.3406
     22 O           9.2637   10.9880   43.0956 O.3     1  UNL1       -0.5030
     23 O           7.4974   13.0968   42.1767 O.3     1  UNL1       -0.3609
     24 C           6.9842   13.3975   44.4923 C.3     1  UNL1        0.1139
     25 O          18.2352   14.2867   44.6968 O.3     1  UNL1       -0.5059
     26 O          17.9125   17.9260   44.2140 O.2     1  UNL1       -0.2450
     27 O          18.1793   17.0974   46.1835 O.3     1  UNL1       -0.4770
     28 C           6.2970   13.7110   41.6504 C.3     1  UNL1        0.1108
     29 O           7.4252   13.8805   45.7654 O.3     1  UNL1       -0.3862
     30 C           5.6489   14.0780   44.0883 C.3     1  UNL1        0.1121
     31 C           5.1610   13.5750   42.7021 C.3     1  UNL1        0.1117
     32 C           5.9891   13.0457   40.2918 C.3     1  UNL1        0.0729
     33 O           4.6436   13.8218   45.0637 O.3     1  UNL1       -0.3865
     34 O           4.7311   12.2108   42.8033 O.3     1  UNL1       -0.3865
     35 O           6.4697   11.7029   40.2791 O.3     1  UNL1       -0.3924
     36 H           8.8310   15.5614   44.0666 H       1  UNL1        0.2922
     37 H          16.4083   12.6441   44.1977 H       1  UNL1        0.0661
     38 H          13.5848   17.7057   45.4273 H       1  UNL1        0.0278
     39 H          14.7604   18.3680   44.2759 H       1  UNL1        0.0278
     40 H          15.1487   18.0185   45.9761 H       1  UNL1        0.0278
     41 H           7.9562   14.8144   43.2389 H       1  UNL1        0.0676
     42 H          12.6693   10.4854   43.8480 H       1  UNL1        0.2923
     43 H           8.3100   11.2389   43.1654 H       1  UNL1        0.2923
     44 H           6.8472   12.3130   44.5498 H       1  UNL1        0.0649
     45 H          18.7916   15.0601   44.7824 H       1  UNL1        0.2922
     46 H          18.9202   17.7747   46.1329 H       1  UNL1        0.2954
     47 H           6.5031   14.7715   41.4748 H       1  UNL1        0.0646
     48 H           6.7894   13.6175   46.4378 H       1  UNL1        0.2100
     49 H           5.8055   15.1592   44.0314 H       1  UNL1        0.0647
     50 H           4.3099   14.1857   42.3874 H       1  UNL1        0.0647
     51 H           6.4524   13.6091   39.4771 H       1  UNL1        0.0584
     52 H           4.9070   13.0390   40.1353 H       1  UNL1        0.0584
     53 H           4.4759   12.8640   45.0210 H       1  UNL1        0.2100
     54 H           4.3131   11.9643   41.9587 H       1  UNL1        0.2100
     55 H           6.1950   11.3026   39.4353 H       1  UNL1        0.2095
@<TRIPOS>BOND
     1     1     2    2
     2     2     3    1
     3     2     4    1
     4     3     5   ar
     5     3     6   ar
     6     4     7   ar
     7     4     8   ar
     8     5     9    1
     9     5    10   ar
    10     6    11    1
    11     6    12   ar
    12     7    13   ar
    13     8    14   ar
    14     8    15    1
    15    10    16   ar
    16    10    17    1
    17    11    18    2
    18    12    19    1
    19    13    20   ar
    20    14    21    1
    21    16    22    1
    22    17    23    1
    23    17    24    1
    24    20    25    1
    25    21    26    2
    26    21    27    1
    27    23    28    1
    28    24    29    1
    29    24    30    1
    30    28    31    1
    31    28    32    1
    32    30    33    1
    33    31    34    1
    34    32    35    1
    35     7    11    1
    36    12    16   ar
    37    14    20   ar
    38    30    31    1
    39     9    36    1
    40    13    37    1
    41    15    38    1
    42    15    39    1
    43    15    40    1
    44    17    41    1
    45    19    42    1
    46    22    43    1
    47    24    44    1
    48    25    45    1
    49    27    46    1
    50    28    47    1
    51    29    48    1
    52    30    49    1
    53    31    50    1
    54    32    51    1
    55    32    52    1
    56    33    53    1
    57    34    54    1
    58    35    55    1
@<TRIPOS>SUBSTRUCTURE
     1 UNL1        1 TEMP              0 ****  ****    0 ROOT


##########                                Name:                   6
##########                DOCK_Rotatable_Bonds:                   0
##########                         Heavy_Atoms:                  11
##########                    Molecular_Weight:             146.145
##########                       Formal_Charge:         7.45058e-09
##########                     HBond_Acceptors:                   2
##########                        HBond_Donors:                   0
##########                    Descriptor_Score:           40.491974
##########          Footprint_Similarity_Score:           11.923632
##########                 desc_FPS_vdw_energy:          -24.350973
##########                  desc_FPS_es_energy:            0.248482
##########              desc_FPS_vdw+es_energy:          -24.102491
##########                  desc_FPS_num_hbond:                   1
##########                    desc_FPS_vdw_fps:            9.499992
##########                     desc_FPS_es_fps:            2.423640
##########                     desc_FPS_hb_fps:            1.000000
##########              desc_FPS_vdw_fp_numres:                 219
##########               desc_FPS_es_fp_numres:                 219
##########               desc_FPS_hb_fp_numres:                 219
##########                 Pharmacophore_Score:           20.000000
##########              desc_FMS_num_match_tot:                   0
##########              desc_FMS_max_match_ref:                  10
##########              desc_FMS_max_match_mol:                   4
##########                 desc_FMS_match_rate:            4.000000
##########                desc_FMS_match_resid:            0.000000
##########    desc_FMS_num_hydrophobic_matched:                   0
##########          desc_FMS_num_donor_matched:                   0
##########       desc_FMS_num_acceptor_matched:                   0
##########       desc_FMS_num_aromatic_matched:                   0
##########       desc_FMS_num_positive_matched:                   0
##########       desc_FMS_num_negative_matched:                   0
##########           desc_FMS_num_ring_matched:                   0
########## Hungarian_Matching_Similarity_Score:            8.568342
##########       desc_HMS_num_unmtchd_hvy_atms:                  14
##########           desc_HMS_num_ref_hvy_atms:                  23
##########        desc_HMS_rmsd_mtchd_hvy_atms:           10.524863
##########               Property_Volume_Score:            0.000000
##########               desc_VOS_geometric_vo:            0.000000
##########                desc_VOS_hvy_atom_vo:            0.000000
##########            desc_VOS_pos_chrg_atm_vo:            0.000000
##########            desc_VOS_neg_chrg_atm_vo:            0.000000
##########         desc_VOS_hydrophobic_atm_vo:            0.000000
##########         desc_VOS_hydrophilic_atm_vo:            0.000000
##########           Internal_energy_repulsive:            0.291620

@<TRIPOS>MOLECULE
6
 17 18 1 0 0
SMALL
GASTEIGER


@<TRIPOS>ATOM
      1 O          21.0611    7.8776   42.9854 O.2     1  UNL1       -0.2452
      2 C          21.6672    8.2829   42.0156 C.ar    1  UNL1        0.3372
      3 O          21.6450    7.6090   40.8381 O.2     1  UNL1       -0.4222
      4 C          22.4659    9.5194   42.0099 C.ar    1  UNL1        0.0236
      5 C          22.3191    7.9958   39.6976 C.ar    1  UNL1        0.1390
      6 C          23.1523    9.9836   40.8375 C.ar    1  UNL1       -0.0443
      7 C          23.0632    9.2264   39.6775 C.ar    1  UNL1        0.0176
      8 C          22.2077    7.1988   38.5082 C.ar    1  UNL1       -0.0186
      9 C          23.6763    9.6237   38.4895 C.ar    1  UNL1       -0.0511
     10 C          22.8403    7.6406   37.3481 C.ar    1  UNL1       -0.0582
     11 C          23.5635    8.8366   37.3405 C.ar    1  UNL1       -0.0610
     12 H          22.4869   10.0629   42.9487 H       1  UNL1        0.0689
     13 H          23.7176   10.9118   40.8548 H       1  UNL1        0.0627
     14 H          21.6477    6.2666   38.5048 H       1  UNL1        0.0654
     15 H          24.2431   10.5509   38.4502 H       1  UNL1        0.0625
     16 H          22.7699    7.0478   36.4389 H       1  UNL1        0.0619
     17 H          24.0474    9.1615   36.4224 H       1  UNL1        0.0618
@<TRIPOS>BOND
     1     1     2    2
     2     2     3   ar
     3     2     4   ar
     4     3     5   ar
     5     4     6   ar
     6     5     7   ar
     7     5     8   ar
     8     7     9   ar
     9     8    10   ar
    10     9    11   ar
    11     6     7   ar
    12    10    11   ar
    13     4    12    1
    14     6    13    1
    15     8    14    1
    16     9    15    1
    17    10    16    1
    18    11    17    1
@<TRIPOS>SUBSTRUCTURE
     1 UNL1        1 TEMP              0 ****  ****    0 ROOT


##########                                Name:                   6
##########                DOCK_Rotatable_Bonds:                   0
##########                         Heavy_Atoms:                  11
##########                    Molecular_Weight:             146.145
##########                       Formal_Charge:         7.45058e-09
##########                     HBond_Acceptors:                   2
##########                        HBond_Donors:                   0
##########                    Descriptor_Score:           40.511967
##########          Footprint_Similarity_Score:           11.941352
##########                 desc_FPS_vdw_energy:          -24.131495
##########                  desc_FPS_es_energy:            0.223606
##########              desc_FPS_vdw+es_energy:          -23.907888
##########                  desc_FPS_num_hbond:                   1
##########                    desc_FPS_vdw_fps:            9.512408
##########                     desc_FPS_es_fps:            2.428943
##########                     desc_FPS_hb_fps:            1.000000
##########              desc_FPS_vdw_fp_numres:                 219
##########               desc_FPS_es_fp_numres:                 219
##########               desc_FPS_hb_fp_numres:                 219
##########                 Pharmacophore_Score:           20.000000
##########              desc_FMS_num_match_tot:                   0
##########              desc_FMS_max_match_ref:                  10
##########              desc_FMS_max_match_mol:                   4
##########                 desc_FMS_match_rate:            4.000000
##########                desc_FMS_match_resid:            0.000000
##########    desc_FMS_num_hydrophobic_matched:                   0
##########          desc_FMS_num_donor_matched:                   0
##########       desc_FMS_num_acceptor_matched:                   0
##########       desc_FMS_num_aromatic_matched:                   0
##########       desc_FMS_num_positive_matched:                   0
##########       desc_FMS_num_negative_matched:                   0
##########           desc_FMS_num_ring_matched:                   0
########## Hungarian_Matching_Similarity_Score:            8.570615
##########       desc_HMS_num_unmtchd_hvy_atms:                  14
##########           desc_HMS_num_ref_hvy_atms:                  23
##########        desc_HMS_rmsd_mtchd_hvy_atms:           10.527136
##########               Property_Volume_Score:            0.000000
##########               desc_VOS_geometric_vo:            0.000000
##########                desc_VOS_hvy_atom_vo:            0.000000
##########            desc_VOS_pos_chrg_atm_vo:            0.000000
##########            desc_VOS_neg_chrg_atm_vo:            0.000000
##########         desc_VOS_hydrophobic_atm_vo:            0.000000
##########         desc_VOS_hydrophilic_atm_vo:            0.000000
##########           Internal_energy_repulsive:            0.291634

@<TRIPOS>MOLECULE
6
 17 18 1 0 0
SMALL
GASTEIGER


@<TRIPOS>ATOM
      1 O          21.1941    7.8864   43.0058 O.2     1  UNL1       -0.2452
      2 C          21.7559    8.3041   42.0148 C.ar    1  UNL1        0.3372
      3 O          21.7007    7.6323   40.8373 O.2     1  UNL1       -0.4222
      4 C          22.5324    9.5542   41.9821 C.ar    1  UNL1        0.0236
      5 C          22.3242    8.0329   39.6730 C.ar    1  UNL1        0.1390
      6 C          23.1657   10.0325   40.7858 C.ar    1  UNL1       -0.0443
      7 C          23.0457    9.2763   39.6280 C.ar    1  UNL1        0.0176
      8 C          22.1816    7.2365   38.4866 C.ar    1  UNL1       -0.0186
      9 C          23.6063    9.6865   38.4186 C.ar    1  UNL1       -0.0511
     10 C          22.7620    7.6914   37.3045 C.ar    1  UNL1       -0.0582
     11 C          23.4636    8.8998   37.2726 C.ar    1  UNL1       -0.0610
     12 H          22.5796   10.0962   42.9209 H       1  UNL1        0.0689
     13 H          23.7152   10.9704   40.7841 H       1  UNL1        0.0627
     14 H          21.6379    6.2947   38.5020 H       1  UNL1        0.0654
     15 H          24.1552   10.6234   38.3604 H       1  UNL1        0.0625
     16 H          22.6673    7.0993   36.3970 H       1  UNL1        0.0619
     17 H          23.9066    9.2348   36.3378 H       1  UNL1        0.0618
@<TRIPOS>BOND
     1     1     2    2
     2     2     3   ar
     3     2     4   ar
     4     3     5   ar
     5     4     6   ar
     6     5     7   ar
     7     5     8   ar
     8     7     9   ar
     9     8    10   ar
    10     9    11   ar
    11     6     7   ar
    12    10    11   ar
    13     4    12    1
    14     6    13    1
    15     8    14    1
    16     9    15    1
    17    10    16    1
    18    11    17    1
@<TRIPOS>SUBSTRUCTURE
     1 UNL1        1 TEMP              0 ****  ****    0 ROOT


##########                                Name:                   6
##########                DOCK_Rotatable_Bonds:                   0
##########                         Heavy_Atoms:                  11
##########                    Molecular_Weight:             146.145
##########                       Formal_Charge:         7.45058e-09
##########                     HBond_Acceptors:                   2
##########                        HBond_Donors:                   0
##########                    Descriptor_Score:           40.456093
##########          Footprint_Similarity_Score:           11.875273
##########                 desc_FPS_vdw_energy:          -23.733397
##########                  desc_FPS_es_energy:            0.246022
##########              desc_FPS_vdw+es_energy:          -23.487373
##########                  desc_FPS_num_hbond:                   1
##########                    desc_FPS_vdw_fps:            9.403236
##########                     desc_FPS_es_fps:            2.472037
##########                     desc_FPS_hb_fps:            1.000000
##########              desc_FPS_vdw_fp_numres:                 219
##########               desc_FPS_es_fp_numres:                 219
##########               desc_FPS_hb_fp_numres:                 219
##########                 Pharmacophore_Score:           20.000000
##########              desc_FMS_num_match_tot:                   0
##########              desc_FMS_max_match_ref:                  10
##########              desc_FMS_max_match_mol:                   4
##########                 desc_FMS_match_rate:            4.000000
##########                desc_FMS_match_resid:            0.000000
##########    desc_FMS_num_hydrophobic_matched:                   0
##########          desc_FMS_num_donor_matched:                   0
##########       desc_FMS_num_acceptor_matched:                   0
##########       desc_FMS_num_aromatic_matched:                   0
##########       desc_FMS_num_positive_matched:                   0
##########       desc_FMS_num_negative_matched:                   0
##########           desc_FMS_num_ring_matched:                   0
########## Hungarian_Matching_Similarity_Score:            8.580819
##########       desc_HMS_num_unmtchd_hvy_atms:                  14
##########           desc_HMS_num_ref_hvy_atms:                  23
##########        desc_HMS_rmsd_mtchd_hvy_atms:           10.537340
##########               Property_Volume_Score:            0.000000
##########               desc_VOS_geometric_vo:            0.000000
##########                desc_VOS_hvy_atom_vo:            0.000000
##########            desc_VOS_pos_chrg_atm_vo:            0.000000
##########            desc_VOS_neg_chrg_atm_vo:            0.000000
##########         desc_VOS_hydrophobic_atm_vo:            0.000000
##########         desc_VOS_hydrophilic_atm_vo:            0.000000
##########           Internal_energy_repulsive:            0.291661

@<TRIPOS>MOLECULE
6
 17 18 1 0 0
SMALL
GASTEIGER


@<TRIPOS>ATOM
      1 O          21.0946    7.8212   43.0647 O.2     1  UNL1       -0.2452
      2 C          21.6968    8.2308   42.0943 C.ar    1  UNL1        0.3372
      3 O          21.6570    7.5706   40.9096 O.2     1  UNL1       -0.4222
      4 C          22.5092    9.4583   42.0955 C.ar    1  UNL1        0.0236
      5 C          22.3256    7.9627   39.7676 C.ar    1  UNL1        0.1390
      6 C          23.1907    9.9282   40.9225 C.ar    1  UNL1       -0.0443
      7 C          23.0832    9.1852   39.7549 C.ar    1  UNL1        0.0176
      8 C          22.1952    7.1806   38.5704 C.ar    1  UNL1       -0.0186
      9 C          23.6905    9.5892   38.5662 C.ar    1  UNL1       -0.0511
     10 C          22.8227    7.6284   37.4099 C.ar    1  UNL1       -0.0582
     11 C          23.5591    8.8164   37.4094 C.ar    1  UNL1       -0.0610
     12 H          22.5443    9.9909   43.0402 H       1  UNL1        0.0689
     13 H          23.7664   10.8498   40.9453 H       1  UNL1        0.0627
     14 H          21.6247    6.2548   38.5614 H       1  UNL1        0.0654
     15 H          24.2673   10.5104   38.5324 H       1  UNL1        0.0625
     16 H          22.7379    7.0468   36.4947 H       1  UNL1        0.0619
     17 H          24.0387    9.1462   36.4909 H       1  UNL1        0.0618
@<TRIPOS>BOND
     1     1     2    2
     2     2     3   ar
     3     2     4   ar
     4     3     5   ar
     5     4     6   ar
     6     5     7   ar
     7     5     8   ar
     8     7     9   ar
     9     8    10   ar
    10     9    11   ar
    11     6     7   ar
    12    10    11   ar
    13     4    12    1
    14     6    13    1
    15     8    14    1
    16     9    15    1
    17    10    16    1
    18    11    17    1
@<TRIPOS>SUBSTRUCTURE
     1 UNL1        1 TEMP              0 ****  ****    0 ROOT


##########                                Name:                   7
##########                DOCK_Rotatable_Bonds:                   2
##########                         Heavy_Atoms:                  13
##########                    Molecular_Weight:             173.171
##########                       Formal_Charge:         7.45058e-09
##########                     HBond_Acceptors:                   3
##########                        HBond_Donors:                   1
##########                    Descriptor_Score:           40.118767
##########          Footprint_Similarity_Score:           11.752709
##########                 desc_FPS_vdw_energy:          -22.992413
##########                  desc_FPS_es_energy:           -0.754938
##########              desc_FPS_vdw+es_energy:          -23.747351
##########                  desc_FPS_num_hbond:                   0
##########                    desc_FPS_vdw_fps:            9.643955
##########                     desc_FPS_es_fps:            2.108755
##########                     desc_FPS_hb_fps:            0.000000
##########              desc_FPS_vdw_fp_numres:                 219
##########               desc_FPS_es_fp_numres:                 219
##########               desc_FPS_hb_fp_numres:                 219
##########                 Pharmacophore_Score:           20.000000
##########              desc_FMS_num_match_tot:                   0
##########              desc_FMS_max_match_ref:                  10
##########              desc_FMS_max_match_mol:                   6
##########                 desc_FMS_match_rate:            4.000000
##########                desc_FMS_match_resid:            0.000000
##########    desc_FMS_num_hydrophobic_matched:                   0
##########          desc_FMS_num_donor_matched:                   0
##########       desc_FMS_num_acceptor_matched:                   0
##########       desc_FMS_num_aromatic_matched:                   0
##########       desc_FMS_num_positive_matched:                   0
##########       desc_FMS_num_negative_matched:                   0
##########           desc_FMS_num_ring_matched:                   0
########## Hungarian_Matching_Similarity_Score:            8.366059
##########       desc_HMS_num_unmtchd_hvy_atms:                  12
##########           desc_HMS_num_ref_hvy_atms:                  23
##########        desc_HMS_rmsd_mtchd_hvy_atms:           10.757364
##########               Property_Volume_Score:            0.000000
##########               desc_VOS_geometric_vo:            0.000000
##########                desc_VOS_hvy_atom_vo:            0.000000
##########            desc_VOS_pos_chrg_atm_vo:            0.000000
##########            desc_VOS_neg_chrg_atm_vo:            0.000000
##########         desc_VOS_hydrophobic_atm_vo:            0.000000
##########         desc_VOS_hydrophilic_atm_vo:            0.000000
##########           Internal_energy_repulsive:            0.586443

@<TRIPOS>MOLECULE
7
 20 21 1 0 0
SMALL
GASTEIGER


@<TRIPOS>ATOM
      1 O          23.2076   11.5529   43.3655 O.2     1  UNL1       -0.2434
      2 C          22.8107   11.5753   42.2180 C.2     1  UNL1        0.3553
      3 OXT        22.4184   12.6850   41.6493 O.3     1  UNL1       -0.4761
      4 CA         22.7242   10.3591   41.3391 C.ar    1  UNL1        0.1481
      5 N          23.1660   10.4587   40.0591 N.ar    1  UNL1       -0.2401
      6 C          22.2010    9.1666   41.8458 C.ar    1  UNL1       -0.0287
      7 C          23.0995    9.3744   39.2520 C.ar    1  UNL1        0.0719
      8 C          22.1272    8.0495   41.0192 C.ar    1  UNL1       -0.0503
      9 C          22.5821    8.1504   39.7054 C.ar    1  UNL1        0.0004
     10 C          23.5560    9.4652   37.9355 C.ar    1  UNL1       -0.0357
     11 C          22.5239    7.0469   38.8527 C.ar    1  UNL1       -0.0526
     12 C          23.4998    8.3631   37.0848 C.ar    1  UNL1       -0.0597
     13 C          22.9833    7.1538   37.5424 C.ar    1  UNL1       -0.0611
     14 HXT        22.1302   12.4281   40.7526 H       1  UNL1        0.2955
     15 H          21.8520    9.1056   42.8740 H       1  UNL1        0.0641
     16 H          21.7210    7.1149   41.3992 H       1  UNL1        0.0625
     17 H          23.9617   10.4045   37.5659 H       1  UNL1        0.0639
     18 H          22.1217    6.0998   39.2052 H       1  UNL1        0.0624
     19 H          23.8601    8.4482   36.0625 H       1  UNL1        0.0618
     20 H          22.9394    6.2943   36.8778 H       1  UNL1        0.0618
@<TRIPOS>BOND
     1     1     2    2
     2     2     3    1
     3     2     4    1
     4     4     5   ar
     5     4     6   ar
     6     5     7   ar
     7     6     8   ar
     8     7     9   ar
     9     7    10   ar
    10     9    11   ar
    11    10    12   ar
    12    11    13   ar
    13     8     9   ar
    14    12    13   ar
    15     3    14    1
    16     6    15    1
    17     8    16    1
    18    10    17    1
    19    11    18    1
    20    12    19    1
    21    13    20    1
@<TRIPOS>SUBSTRUCTURE
     1 UNL1        1 TEMP              0 ****  ****    0 ROOT


##########                                Name:                   7
##########                DOCK_Rotatable_Bonds:                   2
##########                         Heavy_Atoms:                  13
##########                    Molecular_Weight:             173.171
##########                       Formal_Charge:         7.45058e-09
##########                     HBond_Acceptors:                   3
##########                        HBond_Donors:                   1
##########                    Descriptor_Score:           39.596592
##########          Footprint_Similarity_Score:           11.401630
##########                 desc_FPS_vdw_energy:          -22.039474
##########                  desc_FPS_es_energy:           -0.545592
##########              desc_FPS_vdw+es_energy:          -22.585066
##########                  desc_FPS_num_hbond:                   0
##########                    desc_FPS_vdw_fps:            9.402400
##########                     desc_FPS_es_fps:            1.999230
##########                     desc_FPS_hb_fps:            0.000000
##########              desc_FPS_vdw_fp_numres:                 219
##########               desc_FPS_es_fp_numres:                 219
##########               desc_FPS_hb_fp_numres:                 219
##########                 Pharmacophore_Score:           20.000000
##########              desc_FMS_num_match_tot:                   0
##########              desc_FMS_max_match_ref:                  10
##########              desc_FMS_max_match_mol:                   6
##########                 desc_FMS_match_rate:            4.000000
##########                desc_FMS_match_resid:            0.000000
##########    desc_FMS_num_hydrophobic_matched:                   0
##########          desc_FMS_num_donor_matched:                   0
##########       desc_FMS_num_acceptor_matched:                   0
##########       desc_FMS_num_aromatic_matched:                   0
##########       desc_FMS_num_positive_matched:                   0
##########       desc_FMS_num_negative_matched:                   0
##########           desc_FMS_num_ring_matched:                   0
########## Hungarian_Matching_Similarity_Score:            8.194962
##########       desc_HMS_num_unmtchd_hvy_atms:                  12
##########           desc_HMS_num_ref_hvy_atms:                  23
##########        desc_HMS_rmsd_mtchd_hvy_atms:           10.586266
##########               Property_Volume_Score:            0.000000
##########               desc_VOS_geometric_vo:            0.000000
##########                desc_VOS_hvy_atom_vo:            0.000000
##########            desc_VOS_pos_chrg_atm_vo:            0.000000
##########            desc_VOS_neg_chrg_atm_vo:            0.000000
##########         desc_VOS_hydrophobic_atm_vo:            0.000000
##########         desc_VOS_hydrophilic_atm_vo:            0.000000
##########           Internal_energy_repulsive:            0.827592

@<TRIPOS>MOLECULE
7
 20 21 1 0 0
SMALL
GASTEIGER


@<TRIPOS>ATOM
      1 O          22.8414   11.8774   43.5652 O.2     1  UNL1       -0.2434
      2 C          22.8313   11.8479   42.3512 C.2     1  UNL1        0.3553
      3 OXT        22.9307   12.9387   41.6377 O.3     1  UNL1       -0.4761
      4 CA         22.7043   10.5850   41.5463 C.ar    1  UNL1        0.1481
      5 N          23.0218   10.6294   40.2269 N.ar    1  UNL1       -0.2401
      6 C          22.2706    9.4065   42.1591 C.ar    1  UNL1       -0.0287
      7 C          22.9170    9.5024   39.4849 C.ar    1  UNL1        0.0719
      8 C          22.1578    8.2455   41.4000 C.ar    1  UNL1       -0.0503
      9 C          22.4851    8.2898   40.0457 C.ar    1  UNL1        0.0004
     10 C          23.2460    9.5366   38.1283 C.ar    1  UNL1       -0.0357
     11 C          22.3850    7.1415   39.2585 C.ar    1  UNL1       -0.0526
     12 C          23.1480    8.3899   37.3428 C.ar    1  UNL1       -0.0597
     13 C          22.7169    7.1921   37.9070 C.ar    1  UNL1       -0.0611
     14 HXT        22.8602   12.6472   40.7085 H       1  UNL1        0.2955
     15 H          22.0208    9.3900   43.2173 H       1  UNL1        0.0641
     16 H          21.8201    7.3211   41.8628 H       1  UNL1        0.0625
     17 H          23.5840   10.4662   37.6756 H       1  UNL1        0.0639
     18 H          22.0492    6.2033   39.6943 H       1  UNL1        0.0624
     19 H          23.4088    8.4311   36.2881 H       1  UNL1        0.0618
     20 H          22.6404    6.2978   37.2933 H       1  UNL1        0.0618
@<TRIPOS>BOND
     1     1     2    2
     2     2     3    1
     3     2     4    1
     4     4     5   ar
     5     4     6   ar
     6     5     7   ar
     7     6     8   ar
     8     7     9   ar
     9     7    10   ar
    10     9    11   ar
    11    10    12   ar
    12    11    13   ar
    13     8     9   ar
    14    12    13   ar
    15     3    14    1
    16     6    15    1
    17     8    16    1
    18    10    17    1
    19    11    18    1
    20    12    19    1
    21    13    20    1
@<TRIPOS>SUBSTRUCTURE
     1 UNL1        1 TEMP              0 ****  ****    0 ROOT


##########                                Name:                   7
##########                DOCK_Rotatable_Bonds:                   2
##########                         Heavy_Atoms:                  13
##########                    Molecular_Weight:             173.171
##########                       Formal_Charge:         7.45058e-09
##########                     HBond_Acceptors:                   3
##########                        HBond_Donors:                   1
##########                    Descriptor_Score:           40.661736
##########          Footprint_Similarity_Score:           11.596869
##########                 desc_FPS_vdw_energy:          -23.709637
##########                  desc_FPS_es_energy:            0.172180
##########              desc_FPS_vdw+es_energy:          -23.537457
##########                  desc_FPS_num_hbond:                   0
##########                    desc_FPS_vdw_fps:            9.526640
##########                     desc_FPS_es_fps:            2.070230
##########                     desc_FPS_hb_fps:            0.000000
##########              desc_FPS_vdw_fp_numres:                 219
##########               desc_FPS_es_fp_numres:                 219
##########               desc_FPS_hb_fp_numres:                 219
##########                 Pharmacophore_Score:           20.000000
##########              desc_FMS_num_match_tot:                   0
##########              desc_FMS_max_match_ref:                  10
##########              desc_FMS_max_match_mol:                   6
##########                 desc_FMS_match_rate:            4.000000
##########                desc_FMS_match_resid:            0.000000
##########    desc_FMS_num_hydrophobic_matched:                   0
##########          desc_FMS_num_donor_matched:                   0
##########       desc_FMS_num_acceptor_matched:                   0
##########       desc_FMS_num_aromatic_matched:                   0
##########       desc_FMS_num_positive_matched:                   0
##########       desc_FMS_num_negative_matched:                   0
##########           desc_FMS_num_ring_matched:                   0
########## Hungarian_Matching_Similarity_Score:            9.064864
##########       desc_HMS_num_unmtchd_hvy_atms:                  12
##########           desc_HMS_num_ref_hvy_atms:                  23
##########        desc_HMS_rmsd_mtchd_hvy_atms:           11.456168
##########               Property_Volume_Score:            0.000000
##########               desc_VOS_geometric_vo:            0.000000
##########                desc_VOS_hvy_atom_vo:            0.000000
##########            desc_VOS_pos_chrg_atm_vo:            0.000000
##########            desc_VOS_neg_chrg_atm_vo:            0.000000
##########         desc_VOS_hydrophobic_atm_vo:            0.000000
##########         desc_VOS_hydrophilic_atm_vo:            0.000000
##########           Internal_energy_repulsive:            1.880407

@<TRIPOS>MOLECULE
7
 20 21 1 0 0
SMALL
GASTEIGER


@<TRIPOS>ATOM
      1 O          22.9563   10.1316   42.6544 O.2     1  UNL1       -0.2434
      2 C          22.3836    9.2209   42.0911 C.2     1  UNL1        0.3553
      3 OXT        21.4413    8.5336   42.6814 O.3     1  UNL1       -0.4761
      4 CA         22.6850    8.7864   40.6842 C.ar    1  UNL1        0.1481
      5 N          23.6504    9.4514   39.9992 N.ar    1  UNL1       -0.2401
      6 C          21.9798    7.7227   40.1152 C.ar    1  UNL1       -0.0287
      7 C          23.9391    9.0739   38.7321 C.ar    1  UNL1        0.0719
      8 C          22.2703    7.3326   38.8113 C.ar    1  UNL1       -0.0503
      9 C          23.2625    8.0138   38.1079 C.ar    1  UNL1        0.0004
     10 C          24.9339    9.7483   38.0210 C.ar    1  UNL1       -0.0357
     11 C          23.5788    7.6444   36.7995 C.ar    1  UNL1       -0.0526
     12 C          25.2510    9.3783   36.7156 C.ar    1  UNL1       -0.0597
     13 C          24.5734    8.3269   36.1039 C.ar    1  UNL1       -0.0611
     14 HXT        21.1418    7.8828   42.0182 H       1  UNL1        0.2955
     15 H          21.2097    7.2017   40.6793 H       1  UNL1        0.0641
     16 H          21.7286    6.5075   38.3547 H       1  UNL1        0.0625
     17 H          25.4705   10.5715   38.4877 H       1  UNL1        0.0639
     18 H          23.0528    6.8236   36.3172 H       1  UNL1        0.0624
     19 H          26.0289    9.9117   36.1746 H       1  UNL1        0.0618
     20 H          24.8213    8.0391   35.0851 H       1  UNL1        0.0618
@<TRIPOS>BOND
     1     1     2    2
     2     2     3    1
     3     2     4    1
     4     4     5   ar
     5     4     6   ar
     6     5     7   ar
     7     6     8   ar
     8     7     9   ar
     9     7    10   ar
    10     9    11   ar
    11    10    12   ar
    12    11    13   ar
    13     8     9   ar
    14    12    13   ar
    15     3    14    1
    16     6    15    1
    17     8    16    1
    18    10    17    1
    19    11    18    1
    20    12    19    1
    21    13    20    1
@<TRIPOS>SUBSTRUCTURE
     1 UNL1        1 TEMP              0 ****  ****    0 ROOT


##########                                Name:                   8
##########                DOCK_Rotatable_Bonds:                   4
##########                         Heavy_Atoms:                  11
##########                    Molecular_Weight:             148.161
##########                       Formal_Charge:         0.000199907
##########                     HBond_Acceptors:                   2
##########                        HBond_Donors:                   1
##########                    Descriptor_Score:           39.411690
##########          Footprint_Similarity_Score:           11.244555
##########                 desc_FPS_vdw_energy:          -20.617920
##########                  desc_FPS_es_energy:           -1.534035
##########              desc_FPS_vdw+es_energy:          -22.151955
##########                  desc_FPS_num_hbond:                   2
##########                    desc_FPS_vdw_fps:            8.911110
##########                     desc_FPS_es_fps:            2.333445
##########                     desc_FPS_hb_fps:            1.414214
##########              desc_FPS_vdw_fp_numres:                 219
##########               desc_FPS_es_fp_numres:                 219
##########               desc_FPS_hb_fp_numres:                 219
##########                 Pharmacophore_Score:           20.000000
##########              desc_FMS_num_match_tot:                   0
##########              desc_FMS_max_match_ref:                  10
##########              desc_FMS_max_match_mol:                   6
##########                 desc_FMS_match_rate:            4.000000
##########                desc_FMS_match_resid:            0.000000
##########    desc_FMS_num_hydrophobic_matched:                   0
##########          desc_FMS_num_donor_matched:                   0
##########       desc_FMS_num_acceptor_matched:                   0
##########       desc_FMS_num_aromatic_matched:                   0
##########       desc_FMS_num_positive_matched:                   0
##########       desc_FMS_num_negative_matched:                   0
##########           desc_FMS_num_ring_matched:                   0
########## Hungarian_Matching_Similarity_Score:            8.167134
##########       desc_HMS_num_unmtchd_hvy_atms:                  12
##########           desc_HMS_num_ref_hvy_atms:                  23
##########        desc_HMS_rmsd_mtchd_hvy_atms:           10.558439
##########               Property_Volume_Score:            0.000000
##########               desc_VOS_geometric_vo:            0.000000
##########                desc_VOS_hvy_atom_vo:            0.000000
##########            desc_VOS_pos_chrg_atm_vo:            0.000000
##########            desc_VOS_neg_chrg_atm_vo:            0.000000
##########         desc_VOS_hydrophobic_atm_vo:            0.000000
##########         desc_VOS_hydrophilic_atm_vo:            0.000000
##########           Internal_energy_repulsive:            3.230194

@<TRIPOS>MOLECULE
8
 19 19 1 0 0
SMALL
GASTEIGER


@<TRIPOS>ATOM
      1 O          21.9831    9.4132   42.7975 O.2     1  UNL1       -0.2458
      2 C          21.6635    8.4246   42.1715 C.2     1  UNL1        0.3296
      3 O          20.8921    7.5010   42.6817 O.3     1  UNL1       -0.4775
      4 C          22.1303    8.1791   40.7864 C.2     1  UNL1        0.0229
      5 C          22.8227    9.0024   39.9817 C.2     1  UNL1       -0.0478
      6 C          23.2777    8.7358   38.6029 C.ar    1  UNL1       -0.0248
      7 C          24.0281    9.6878   37.9093 C.ar    1  UNL1       -0.0546
      8 C          22.9745    7.5184   37.9896 C.ar    1  UNL1       -0.0546
      9 C          24.4675    9.4265   36.6129 C.ar    1  UNL1       -0.0612
     10 C          23.4188    7.2553   36.6947 C.ar    1  UNL1       -0.0612
     11 C          24.1650    8.2099   36.0057 C.ar    1  UNL1       -0.0617
     12 H          20.7432    6.8317   41.9939 H       1  UNL1        0.2954
     13 H          21.8672    7.2046   40.3754 H       1  UNL1        0.0689
     14 H          23.0928    9.9896   40.3529 H       1  UNL1        0.0626
     15 H          24.2746   10.6379   38.3774 H       1  UNL1        0.0623
     16 H          22.3947    6.7675   38.5215 H       1  UNL1        0.0623
     17 H          25.0504   10.1717   36.0763 H       1  UNL1        0.0618
     18 H          23.1853    6.3043   36.2223 H       1  UNL1        0.0618
     19 H          24.5119    8.0042   34.9962 H       1  UNL1        0.0618
@<TRIPOS>BOND
     1     1     2    2
     2     2     3    1
     3     2     4    1
     4     4     5    2
     5     5     6    1
     6     6     7   ar
     7     6     8   ar
     8     7     9   ar
     9     8    10   ar
    10     9    11   ar
    11    10    11   ar
    12     3    12    1
    13     4    13    1
    14     5    14    1
    15     7    15    1
    16     8    16    1
    17     9    17    1
    18    10    18    1
    19    11    19    1
@<TRIPOS>SUBSTRUCTURE
     1 UNL1        1 TEMP              0 ****  ****    0 ROOT


##########                                Name:                   8
##########                DOCK_Rotatable_Bonds:                   4
##########                         Heavy_Atoms:                  11
##########                    Molecular_Weight:             148.161
##########                       Formal_Charge:         0.000199907
##########                     HBond_Acceptors:                   2
##########                        HBond_Donors:                   1
##########                    Descriptor_Score:           39.123993
##########          Footprint_Similarity_Score:           11.037761
##########                 desc_FPS_vdw_energy:          -21.154455
##########                  desc_FPS_es_energy:           -1.167740
##########              desc_FPS_vdw+es_energy:          -22.322195
##########                  desc_FPS_num_hbond:                   1
##########                    desc_FPS_vdw_fps:            8.868141
##########                     desc_FPS_es_fps:            2.169620
##########                     desc_FPS_hb_fps:            1.000000
##########              desc_FPS_vdw_fp_numres:                 219
##########               desc_FPS_es_fp_numres:                 219
##########               desc_FPS_hb_fp_numres:                 219
##########                 Pharmacophore_Score:           20.000000
##########              desc_FMS_num_match_tot:                   0
##########              desc_FMS_max_match_ref:                  10
##########              desc_FMS_max_match_mol:                   6
##########                 desc_FMS_match_rate:            4.000000
##########                desc_FMS_match_resid:            0.000000
##########    desc_FMS_num_hydrophobic_matched:                   0
##########          desc_FMS_num_donor_matched:                   0
##########       desc_FMS_num_acceptor_matched:                   0
##########       desc_FMS_num_aromatic_matched:                   0
##########       desc_FMS_num_positive_matched:                   0
##########       desc_FMS_num_negative_matched:                   0
##########           desc_FMS_num_ring_matched:                   0
########## Hungarian_Matching_Similarity_Score:            8.086230
##########       desc_HMS_num_unmtchd_hvy_atms:                  12
##########           desc_HMS_num_ref_hvy_atms:                  23
##########        desc_HMS_rmsd_mtchd_hvy_atms:           10.477535
##########               Property_Volume_Score:            0.000000
##########               desc_VOS_geometric_vo:            0.000000
##########                desc_VOS_hvy_atom_vo:            0.000000
##########            desc_VOS_pos_chrg_atm_vo:            0.000000
##########            desc_VOS_neg_chrg_atm_vo:            0.000000
##########         desc_VOS_hydrophobic_atm_vo:            0.000000
##########         desc_VOS_hydrophilic_atm_vo:            0.000000
##########           Internal_energy_repulsive:            3.172360

@<TRIPOS>MOLECULE
8
 19 19 1 0 0
SMALL
GASTEIGER


@<TRIPOS>ATOM
      1 O          22.3771    9.6462   42.8227 O.2     1  UNL1       -0.2458
      2 C          21.9186    8.6805   42.2494 C.2     1  UNL1        0.3296
      3 O          21.1252    7.8318   42.8482 O.3     1  UNL1       -0.4775
      4 C          22.2298    8.3793   40.8321 C.2     1  UNL1        0.0229
      5 C          22.7227    9.2042   39.8932 C.2     1  UNL1       -0.0478
      6 C          23.0253    8.8814   38.4849 C.ar    1  UNL1       -0.0248
      7 C          23.6037    9.8387   37.6485 C.ar    1  UNL1       -0.0546
      8 C          22.7507    7.6067   37.9851 C.ar    1  UNL1       -0.0546
      9 C          23.9006    9.5256   36.3234 C.ar    1  UNL1       -0.0612
     10 C          23.0527    7.2923   36.6610 C.ar    1  UNL1       -0.0612
     11 C          23.6273    8.2521   35.8295 C.ar    1  UNL1       -0.0617
     12 H          20.8588    7.1675   42.1917 H       1  UNL1        0.2954
     13 H          22.0225    7.3559   40.5203 H       1  UNL1        0.0689
     14 H          22.9305   10.2381   40.1640 H       1  UNL1        0.0626
     15 H          23.8266   10.8336   38.0269 H       1  UNL1        0.0623
     16 H          22.3046    6.8516   38.6282 H       1  UNL1        0.0623
     17 H          24.3497   10.2750   35.6756 H       1  UNL1        0.0618
     18 H          22.8423    6.2972   36.2767 H       1  UNL1        0.0618
     19 H          23.8634    8.0064   34.7972 H       1  UNL1        0.0618
@<TRIPOS>BOND
     1     1     2    2
     2     2     3    1
     3     2     4    1
     4     4     5    2
     5     5     6    1
     6     6     7   ar
     7     6     8   ar
     8     7     9   ar
     9     8    10   ar
    10     9    11   ar
    11    10    11   ar
    12     3    12    1
    13     4    13    1
    14     5    14    1
    15     7    15    1
    16     8    16    1
    17     9    17    1
    18    10    18    1
    19    11    19    1
@<TRIPOS>SUBSTRUCTURE
     1 UNL1        1 TEMP              0 ****  ****    0 ROOT


##########                                Name:                   8
##########                DOCK_Rotatable_Bonds:                   4
##########                         Heavy_Atoms:                  11
##########                    Molecular_Weight:             148.161
##########                       Formal_Charge:         0.000199907
##########                     HBond_Acceptors:                   2
##########                        HBond_Donors:                   1
##########                    Descriptor_Score:           39.603668
##########          Footprint_Similarity_Score:           11.157543
##########                 desc_FPS_vdw_energy:          -20.289591
##########                  desc_FPS_es_energy:           -1.838370
##########              desc_FPS_vdw+es_energy:          -22.127962
##########                  desc_FPS_num_hbond:                   2
##########                    desc_FPS_vdw_fps:            8.663888
##########                     desc_FPS_es_fps:            2.493655
##########                     desc_FPS_hb_fps:            1.414214
##########              desc_FPS_vdw_fp_numres:                 219
##########               desc_FPS_es_fp_numres:                 219
##########               desc_FPS_hb_fp_numres:                 219
##########                 Pharmacophore_Score:           20.000000
##########              desc_FMS_num_match_tot:                   0
##########              desc_FMS_max_match_ref:                  10
##########              desc_FMS_max_match_mol:                   6
##########                 desc_FMS_match_rate:            4.000000
##########                desc_FMS_match_resid:            0.000000
##########    desc_FMS_num_hydrophobic_matched:                   0
##########          desc_FMS_num_donor_matched:                   0
##########       desc_FMS_num_acceptor_matched:                   0
##########       desc_FMS_num_aromatic_matched:                   0
##########       desc_FMS_num_positive_matched:                   0
##########       desc_FMS_num_negative_matched:                   0
##########           desc_FMS_num_ring_matched:                   0
########## Hungarian_Matching_Similarity_Score:            8.446126
##########       desc_HMS_num_unmtchd_hvy_atms:                  12
##########           desc_HMS_num_ref_hvy_atms:                  23
##########        desc_HMS_rmsd_mtchd_hvy_atms:           10.837430
##########               Property_Volume_Score:            0.000000
##########               desc_VOS_geometric_vo:            0.000000
##########                desc_VOS_hvy_atom_vo:            0.000000
##########            desc_VOS_pos_chrg_atm_vo:            0.000000
##########            desc_VOS_neg_chrg_atm_vo:            0.000000
##########         desc_VOS_hydrophobic_atm_vo:            0.000000
##########         desc_VOS_hydrophilic_atm_vo:            0.000000
##########           Internal_energy_repulsive:            3.043016

@<TRIPOS>MOLECULE
8
 19 19 1 0 0
SMALL
GASTEIGER


@<TRIPOS>ATOM
      1 O          22.1633    9.5047   42.8493 O.2     1  UNL1       -0.2458
      2 C          21.8964    8.4777   42.2615 C.2     1  UNL1        0.3296
      3 O          21.1597    7.5425   42.8008 O.3     1  UNL1       -0.4775
      4 C          22.3927    8.1963   40.8937 C.2     1  UNL1        0.0229
      5 C          23.2680    8.9057   40.1620 C.2     1  UNL1       -0.0478
      6 C          23.7485    8.6054   38.7988 C.ar    1  UNL1       -0.0248
      7 C          23.3147    7.4568   38.1331 C.ar    1  UNL1       -0.0546
      8 C          24.6281    9.4810   38.1587 C.ar    1  UNL1       -0.0546
      9 C          23.7598    7.1842   36.8409 C.ar    1  UNL1       -0.0612
     10 C          25.0689    9.2106   36.8642 C.ar    1  UNL1       -0.0612
     11 C          24.6353    8.0616   36.2051 C.ar    1  UNL1       -0.0617
     12 H          21.1518    6.7877   42.1896 H       1  UNL1        0.2954
     13 H          21.9837    7.2996   40.4285 H       1  UNL1        0.0689
     14 H          23.6885    9.8149   40.5883 H       1  UNL1        0.0626
     15 H          22.6263    6.7694   38.6189 H       1  UNL1        0.0623
     16 H          24.9692   10.3809   38.6653 H       1  UNL1        0.0623
     17 H          23.4202    6.2877   36.3272 H       1  UNL1        0.0618
     18 H          25.7496    9.8973   36.3669 H       1  UNL1        0.0618
     19 H          24.9787    7.8513   35.1953 H       1  UNL1        0.0618
@<TRIPOS>BOND
     1     1     2    2
     2     2     3    1
     3     2     4    1
     4     4     5    2
     5     5     6    1
     6     6     7   ar
     7     6     8   ar
     8     7     9   ar
     9     8    10   ar
    10     9    11   ar
    11    10    11   ar
    12     3    12    1
    13     4    13    1
    14     5    14    1
    15     7    15    1
    16     8    16    1
    17     9    17    1
    18    10    18    1
    19    11    19    1
@<TRIPOS>SUBSTRUCTURE
     1 UNL1        1 TEMP              0 ****  ****    0 ROOT


##########                                Name:                   9
##########                DOCK_Rotatable_Bonds:                  12
##########                         Heavy_Atoms:                  25
##########                    Molecular_Weight:             354.313
##########                       Formal_Charge:        -9.95398e-05
##########                     HBond_Acceptors:                   9
##########                        HBond_Donors:                   6
##########                    Descriptor_Score:           17.270266
##########          Footprint_Similarity_Score:            7.232269
##########                 desc_FPS_vdw_energy:          -34.585735
##########                  desc_FPS_es_energy:           -4.413916
##########              desc_FPS_vdw+es_energy:          -38.999653
##########                  desc_FPS_num_hbond:                   2
##########                    desc_FPS_vdw_fps:            4.174134
##########                     desc_FPS_es_fps:            3.058135
##########                     desc_FPS_hb_fps:            1.414214
##########              desc_FPS_vdw_fp_numres:                 219
##########               desc_FPS_es_fp_numres:                 219
##########               desc_FPS_hb_fp_numres:                 219
##########                 Pharmacophore_Score:            5.932940
##########              desc_FMS_num_match_tot:                   1
##########              desc_FMS_max_match_ref:                  10
##########              desc_FMS_max_match_mol:                  19
##########                 desc_FMS_match_rate:            0.900000
##########                desc_FMS_match_resid:            1.432940
##########    desc_FMS_num_hydrophobic_matched:                   0
##########          desc_FMS_num_donor_matched:                   0
##########       desc_FMS_num_acceptor_matched:                   1
##########       desc_FMS_num_aromatic_matched:                   0
##########       desc_FMS_num_positive_matched:                   0
##########       desc_FMS_num_negative_matched:                   0
##########           desc_FMS_num_ring_matched:                   0
########## Hungarian_Matching_Similarity_Score:            4.420533
##########       desc_HMS_num_unmtchd_hvy_atms:                  24
##########           desc_HMS_num_ref_hvy_atms:                  23
##########        desc_HMS_rmsd_mtchd_hvy_atms:            4.203141
##########               Property_Volume_Score:            0.315476
##########               desc_VOS_geometric_vo:            0.562950
##########                desc_VOS_hvy_atom_vo:            0.557097
##########            desc_VOS_pos_chrg_atm_vo:            0.228339
##########            desc_VOS_neg_chrg_atm_vo:            0.210017
##########         desc_VOS_hydrophobic_atm_vo:            0.194740
##########         desc_VOS_hydrophilic_atm_vo:            0.139711
##########           Internal_energy_repulsive:            6.086281

@<TRIPOS>MOLECULE
9
 43 44 1 0 0
SMALL
GASTEIGER


@<TRIPOS>ATOM
      1 O          10.2375   16.6500   43.2571 O.2     1  UNL1       -0.2456
      2 C          10.0480   15.5300   43.6873 C.2     1  UNL1        0.3323
      3 O          11.0190   14.6139   43.9149 O.3     1  UNL1       -0.4555
      4 C           8.7005   15.0306   44.0493 C.2     1  UNL1        0.0231
      5 C          11.8687   14.1719   42.8210 C.3     1  UNL1        0.1346
      6 C           8.3698   13.8187   44.5251 C.2     1  UNL1       -0.0477
      7 C          11.4367   12.7583   42.3479 C.3     1  UNL1        0.1180
      8 C          13.3485   14.2050   43.2827 C.3     1  UNL1        0.0264
      9 C           7.0274   13.3146   44.8880 C.ar    1  UNL1       -0.0211
     10 O          12.0240   12.4686   41.0713 O.3     1  UNL1       -0.3856
     11 C          11.8108   11.6638   43.3797 C.3     1  UNL1        0.0877
     12 C          13.7144   13.0924   44.3080 C.3     1  UNL1        0.1677
     13 C           6.3149   13.8739   45.9533 C.ar    1  UNL1       -0.0094
     14 C           6.4501   12.2867   44.1380 C.ar    1  UNL1       -0.0509
     15 O          11.4979   10.3813   42.8339 O.3     1  UNL1       -0.3890
     16 C          13.3109   11.7057   43.7537 C.3     1  UNL1        0.0153
     17 O          13.0141   13.3279   45.5412 O.3     1  UNL1       -0.3772
     18 C          15.2155   13.1103   44.5925 C.2     1  UNL1        0.3370
     19 C           5.0363   13.4072   46.2625 C.ar    1  UNL1        0.1588
     20 C           5.1707   11.8246   44.4430 C.ar    1  UNL1       -0.0160
     21 O          16.0642   13.0247   43.7286 O.2     1  UNL1       -0.2478
     22 O          15.5196   13.0955   45.8653 O.3     1  UNL1       -0.4786
     23 O           4.3222   13.9380   47.2998 O.3     1  UNL1       -0.5033
     24 C           4.4656   12.3883   45.5033 C.ar    1  UNL1        0.1582
     25 O           3.2108   11.9678   45.8149 O.3     1  UNL1       -0.5033
     26 H           7.8863   15.7379   43.8960 H       1  UNL1        0.0689
     27 H          11.7531   14.8823   41.9962 H       1  UNL1        0.0762
     28 H           9.1678   13.0902   44.6649 H       1  UNL1        0.0626
     29 H          10.3507   12.7461   42.2196 H       1  UNL1        0.0656
     30 H          13.5729   15.1862   43.7085 H       1  UNL1        0.0335
     31 H          13.9795   14.1012   42.3965 H       1  UNL1        0.0335
     32 H          12.9309   12.1384   41.1928 H       1  UNL1        0.2100
     33 H          11.2166   11.8133   44.2861 H       1  UNL1        0.0621
     34 H           6.7532   14.6774   46.5396 H       1  UNL1        0.0661
     35 H           6.9931   11.8481   43.3043 H       1  UNL1        0.0625
     36 H          10.9365    9.9222   43.4862 H       1  UNL1        0.2099
     37 H          13.9191   11.4704   42.8761 H       1  UNL1        0.0324
     38 H          13.5210   10.9369   44.5021 H       1  UNL1        0.0324
     39 H          13.1730   12.5502   46.1053 H       1  UNL1        0.2109
     40 H           4.7217   11.0306   43.8505 H       1  UNL1        0.0655
     41 H          15.6761   12.1565   46.0956 H       1  UNL1        0.2951
     42 H           3.3785   13.7365   47.1958 H       1  UNL1        0.2923
     43 H           2.8357   11.6084   44.9821 H       1  UNL1        0.2923
@<TRIPOS>BOND
     1     1     2    2
     2     2     3    1
     3     2     4    1
     4     3     5    1
     5     4     6    2
     6     5     7    1
     7     5     8    1
     8     6     9    1
     9     7    10    1
    10     7    11    1
    11     8    12    1
    12     9    13   ar
    13     9    14   ar
    14    11    15    1
    15    11    16    1
    16    12    17    1
    17    12    18    1
    18    13    19   ar
    19    14    20   ar
    20    18    21    2
    21    18    22    1
    22    19    23    1
    23    19    24   ar
    24    24    25    1
    25    12    16    1
    26    20    24   ar
    27     4    26    1
    28     5    27    1
    29     6    28    1
    30     7    29    1
    31     8    30    1
    32     8    31    1
    33    10    32    1
    34    11    33    1
    35    13    34    1
    36    14    35    1
    37    15    36    1
    38    16    37    1
    39    16    38    1
    40    17    39    1
    41    20    40    1
    42    22    41    1
    43    23    42    1
    44    25    43    1
@<TRIPOS>SUBSTRUCTURE
     1 UNL1        1 TEMP              0 ****  ****    0 ROOT


##########                                Name:                   9
##########                DOCK_Rotatable_Bonds:                  12
##########                         Heavy_Atoms:                  25
##########                    Molecular_Weight:             354.313
##########                       Formal_Charge:        -9.95398e-05
##########                     HBond_Acceptors:                   9
##########                        HBond_Donors:                   6
##########                    Descriptor_Score:           15.056353
##########          Footprint_Similarity_Score:            6.805925
##########                 desc_FPS_vdw_energy:          -34.892273
##########                  desc_FPS_es_energy:           -5.678083
##########              desc_FPS_vdw+es_energy:          -40.570358
##########                  desc_FPS_num_hbond:                   3
##########                    desc_FPS_vdw_fps:            3.899707
##########                     desc_FPS_es_fps:            2.906218
##########                     desc_FPS_hb_fps:            2.236068
##########              desc_FPS_vdw_fp_numres:                 219
##########               desc_FPS_es_fp_numres:                 219
##########               desc_FPS_hb_fp_numres:                 219
##########                 Pharmacophore_Score:            4.694010
##########              desc_FMS_num_match_tot:                   2
##########              desc_FMS_max_match_ref:                  10
##########              desc_FMS_max_match_mol:                  19
##########                 desc_FMS_match_rate:            0.800000
##########                desc_FMS_match_resid:            0.694010
##########    desc_FMS_num_hydrophobic_matched:                   0
##########          desc_FMS_num_donor_matched:                   1
##########       desc_FMS_num_acceptor_matched:                   1
##########       desc_FMS_num_aromatic_matched:                   0
##########       desc_FMS_num_positive_matched:                   0
##########       desc_FMS_num_negative_matched:                   0
##########           desc_FMS_num_ring_matched:                   0
########## Hungarian_Matching_Similarity_Score:            3.890244
##########       desc_HMS_num_unmtchd_hvy_atms:                  24
##########           desc_HMS_num_ref_hvy_atms:                  23
##########        desc_HMS_rmsd_mtchd_hvy_atms:            3.672852
##########               Property_Volume_Score:            0.333826
##########               desc_VOS_geometric_vo:            0.570002
##########                desc_VOS_hvy_atom_vo:            0.576717
##########            desc_VOS_pos_chrg_atm_vo:            0.227659
##########            desc_VOS_neg_chrg_atm_vo:            0.246177
##########         desc_VOS_hydrophobic_atm_vo:            0.233856
##########         desc_VOS_hydrophilic_atm_vo:            0.148547
##########           Internal_energy_repulsive:            6.300460

@<TRIPOS>MOLECULE
9
 43 44 1 0 0
SMALL
GASTEIGER


@<TRIPOS>ATOM
      1 O          10.7691   16.5306   42.1570 O.2     1  UNL1       -0.2456
      2 C          10.4088   15.7747   43.0368 C.2     1  UNL1        0.3323
      3 O          11.0415   14.6273   43.3786 O.3     1  UNL1       -0.4555
      4 C           9.2195   16.0399   43.8804 C.2     1  UNL1        0.0231
      5 C          11.9449   13.9894   42.4345 C.3     1  UNL1        0.1346
      6 C           8.0114   15.4567   43.8105 C.2     1  UNL1       -0.0477
      7 C          11.5186   12.5155   42.2014 C.3     1  UNL1        0.1180
      8 C          13.3965   14.0989   42.9683 C.3     1  UNL1        0.0264
      9 C           7.5580   14.4030   42.8767 C.ar    1  UNL1       -0.0211
     10 O          12.1727   11.9954   41.0350 O.3     1  UNL1       -0.3856
     11 C          11.8168   11.6252   43.4346 C.3     1  UNL1        0.0877
     12 C          13.6866   13.1897   44.1979 C.3     1  UNL1        0.1677
     13 C           7.4914   13.0661   43.2812 C.ar    1  UNL1       -0.0094
     14 C           7.1615   14.7512   41.5829 C.ar    1  UNL1       -0.0509
     15 O          11.5156   10.2664   43.1132 O.3     1  UNL1       -0.3890
     16 C          13.2938   11.7272   43.8818 C.3     1  UNL1        0.0153
     17 O          12.9214   13.6491   45.3249 O.3     1  UNL1       -0.3772
     18 C          15.1693   13.2518   44.5617 C.2     1  UNL1        0.3370
     19 C           7.0314   12.0889   42.3971 C.ar    1  UNL1        0.1588
     20 C           6.6964   13.7762   40.7018 C.ar    1  UNL1       -0.0160
     21 O          16.0656   13.1248   43.7527 O.2     1  UNL1       -0.2478
     22 O          15.4028   13.3251   45.8474 O.3     1  UNL1       -0.4786
     23 O           6.9591   10.7762   42.7703 O.3     1  UNL1       -0.5033
     24 C           6.6300   12.4472   41.1123 C.ar    1  UNL1        0.1582
     25 O           6.1672   11.4771   40.2797 O.3     1  UNL1       -0.5033
     26 H           9.3502   16.8113   44.6384 H       1  UNL1        0.0689
     27 H          11.8870   14.5384   41.4892 H       1  UNL1        0.0762
     28 H           7.2503   15.7726   44.5232 H       1  UNL1        0.0626
     29 H          10.4416   12.4854   42.0142 H       1  UNL1        0.0656
     30 H          13.6115   15.1401   43.2213 H       1  UNL1        0.0335
     31 H          14.0750   13.8324   42.1540 H       1  UNL1        0.0335
     32 H          13.0652   12.3751   40.9605 H       1  UNL1        0.2100
     33 H          11.1747   11.9401   44.2626 H       1  UNL1        0.0621
     34 H           7.7927   12.7857   44.2873 H       1  UNL1        0.0661
     35 H           7.2042   15.7885   41.2596 H       1  UNL1        0.0625
     36 H          12.2583    9.7242   43.4385 H       1  UNL1        0.2099
     37 H          13.9470   11.3332   43.0985 H       1  UNL1        0.0324
     38 H          13.4494   11.1065   44.7683 H       1  UNL1        0.0324
     39 H          12.8497   12.8967   45.9389 H       1  UNL1        0.2109
     40 H           6.3802   14.0534   39.6987 H       1  UNL1        0.0655
     41 H          14.5974   13.7134   46.2473 H       1  UNL1        0.2951
     42 H           7.2719   10.6687   43.6828 H       1  UNL1        0.2923
     43 H           5.9453   11.9316   39.4384 H       1  UNL1        0.2923
@<TRIPOS>BOND
     1     1     2    2
     2     2     3    1
     3     2     4    1
     4     3     5    1
     5     4     6    2
     6     5     7    1
     7     5     8    1
     8     6     9    1
     9     7    10    1
    10     7    11    1
    11     8    12    1
    12     9    13   ar
    13     9    14   ar
    14    11    15    1
    15    11    16    1
    16    12    17    1
    17    12    18    1
    18    13    19   ar
    19    14    20   ar
    20    18    21    2
    21    18    22    1
    22    19    23    1
    23    19    24   ar
    24    24    25    1
    25    12    16    1
    26    20    24   ar
    27     4    26    1
    28     5    27    1
    29     6    28    1
    30     7    29    1
    31     8    30    1
    32     8    31    1
    33    10    32    1
    34    11    33    1
    35    13    34    1
    36    14    35    1
    37    15    36    1
    38    16    37    1
    39    16    38    1
    40    17    39    1
    41    20    40    1
    42    22    41    1
    43    23    42    1
    44    25    43    1
@<TRIPOS>SUBSTRUCTURE
     1 UNL1        1 TEMP              0 ****  ****    0 ROOT


##########                                Name:                   9
##########                DOCK_Rotatable_Bonds:                  12
##########                         Heavy_Atoms:                  25
##########                    Molecular_Weight:             354.313
##########                       Formal_Charge:        -9.95398e-05
##########                     HBond_Acceptors:                   9
##########                        HBond_Donors:                   6
##########                    Descriptor_Score:           29.952276
##########          Footprint_Similarity_Score:            7.341177
##########                 desc_FPS_vdw_energy:          -32.667202
##########                  desc_FPS_es_energy:           -5.233698
##########              desc_FPS_vdw+es_energy:          -37.900902
##########                  desc_FPS_num_hbond:                   3
##########                    desc_FPS_vdw_fps:            5.480899
##########                     desc_FPS_es_fps:            1.860278
##########                     desc_FPS_hb_fps:            1.732051
##########              desc_FPS_vdw_fp_numres:                 219
##########               desc_FPS_es_fp_numres:                 219
##########               desc_FPS_hb_fp_numres:                 219
##########                 Pharmacophore_Score:           20.000000
##########              desc_FMS_num_match_tot:                   0
##########              desc_FMS_max_match_ref:                  10
##########              desc_FMS_max_match_mol:                  19
##########                 desc_FMS_match_rate:            4.000000
##########                desc_FMS_match_resid:            0.000000
##########    desc_FMS_num_hydrophobic_matched:                   0
##########          desc_FMS_num_donor_matched:                   0
##########       desc_FMS_num_acceptor_matched:                   0
##########       desc_FMS_num_aromatic_matched:                   0
##########       desc_FMS_num_positive_matched:                   0
##########       desc_FMS_num_negative_matched:                   0
##########           desc_FMS_num_ring_matched:                   0
########## Hungarian_Matching_Similarity_Score:            2.864472
##########       desc_HMS_num_unmtchd_hvy_atms:                  24
##########           desc_HMS_num_ref_hvy_atms:                  23
##########        desc_HMS_rmsd_mtchd_hvy_atms:            2.647081
##########               Property_Volume_Score:            0.253372
##########               desc_VOS_geometric_vo:            0.438232
##########                desc_VOS_hvy_atom_vo:            0.453103
##########            desc_VOS_pos_chrg_atm_vo:            0.123668
##########            desc_VOS_neg_chrg_atm_vo:            0.259871
##########         desc_VOS_hydrophobic_atm_vo:            0.189681
##########         desc_VOS_hydrophilic_atm_vo:            0.055678
##########           Internal_energy_repulsive:            7.686843

@<TRIPOS>MOLECULE
9
 43 44 1 0 0
SMALL
GASTEIGER


@<TRIPOS>ATOM
      1 O          11.0973   12.6210   41.2245 O.2     1  UNL1       -0.2456
      2 C          10.4407   11.9098   41.9583 C.2     1  UNL1        0.3323
      3 O           9.0904   11.9362   42.0567 O.3     1  UNL1       -0.4555
      4 C          11.0537   10.8838   42.8346 C.2     1  UNL1        0.0231
      5 C           8.4289   13.0928   42.6388 C.3     1  UNL1        0.1346
      6 C          12.1636   10.9942   43.5831 C.2     1  UNL1       -0.0477
      7 C           7.6101   12.6669   43.8865 C.3     1  UNL1        0.1180
      8 C           7.5406   13.7653   41.5604 C.3     1  UNL1        0.0264
      9 C          13.0573   12.1641   43.7255 C.ar    1  UNL1       -0.0211
     10 O           7.2502   13.8243   44.6543 O.3     1  UNL1       -0.3856
     11 C           6.3468   11.8562   43.5000 C.3     1  UNL1        0.0877
     12 C           6.2685   12.9478   41.1916 C.3     1  UNL1        0.1677
     13 C          12.5620   13.3962   44.1634 C.ar    1  UNL1       -0.0094
     14 C          14.4202   12.0293   43.4484 C.ar    1  UNL1       -0.0509
     15 O           5.5780   11.6009   44.6766 O.3     1  UNL1       -0.3890
     16 C           5.4684   12.6045   42.4702 C.3     1  UNL1        0.0153
     17 O           6.6558   11.7276   40.5374 O.3     1  UNL1       -0.3772
     18 C           5.3846   13.7494   40.2372 C.2     1  UNL1        0.3370
     19 C          13.4250   14.4817   44.3221 C.ar    1  UNL1        0.1588
     20 C          15.2833   13.1117   43.6127 C.ar    1  UNL1       -0.0160
     21 O           4.3035   13.3656   39.8404 O.2     1  UNL1       -0.2478
     22 O           5.9458   14.8370   39.7735 O.3     1  UNL1       -0.4786
     23 O          12.9629   15.6954   44.7476 O.3     1  UNL1       -0.5033
     24 C          14.7836   14.3350   44.0520 C.ar    1  UNL1        0.1582
     25 O          15.6037   15.4038   44.2350 O.3     1  UNL1       -0.5033
     26 H          10.5383    9.9244   42.8574 H       1  UNL1        0.0689
     27 H           9.2019   13.8079   42.9380 H       1  UNL1        0.0762
     28 H          12.4655   10.1328   44.1781 H       1  UNL1        0.0626
     29 H           8.2376   12.0346   44.5209 H       1  UNL1        0.0656
     30 H           8.1361   13.9452   40.6618 H       1  UNL1        0.0335
     31 H           7.2426   14.7476   41.9353 H       1  UNL1        0.0335
     32 H           6.3274   14.0695   44.4684 H       1  UNL1        0.2100
     33 H           6.6576   10.8994   43.0699 H       1  UNL1        0.0621
     34 H          11.5042   13.5100   44.3863 H       1  UNL1        0.0661
     35 H          14.8171   11.0744   43.1124 H       1  UNL1        0.0625
     36 H           4.9149   12.3130   44.7448 H       1  UNL1        0.2099
     37 H           5.0758   13.5230   42.9148 H       1  UNL1        0.0324
     38 H           4.6070   11.9843   42.2078 H       1  UNL1        0.0324
     39 H           5.8364   11.3110   40.2161 H       1  UNL1        0.2109
     40 H          16.3450   12.9994   43.4047 H       1  UNL1        0.0655
     41 H           5.5748   14.9723   38.8772 H       1  UNL1        0.2951
     42 H          11.9994   15.7441   44.6410 H       1  UNL1        0.2923
     43 H          16.5131   15.0733   44.0698 H       1  UNL1        0.2923
@<TRIPOS>BOND
     1     1     2    2
     2     2     3    1
     3     2     4    1
     4     3     5    1
     5     4     6    2
     6     5     7    1
     7     5     8    1
     8     6     9    1
     9     7    10    1
    10     7    11    1
    11     8    12    1
    12     9    13   ar
    13     9    14   ar
    14    11    15    1
    15    11    16    1
    16    12    17    1
    17    12    18    1
    18    13    19   ar
    19    14    20   ar
    20    18    21    2
    21    18    22    1
    22    19    23    1
    23    19    24   ar
    24    24    25    1
    25    12    16    1
    26    20    24   ar
    27     4    26    1
    28     5    27    1
    29     6    28    1
    30     7    29    1
    31     8    30    1
    32     8    31    1
    33    10    32    1
    34    11    33    1
    35    13    34    1
    36    14    35    1
    37    15    36    1
    38    16    37    1
    39    16    38    1
    40    17    39    1
    41    20    40    1
    42    22    41    1
    43    23    42    1
    44    25    43    1
@<TRIPOS>SUBSTRUCTURE
     1 UNL1        1 TEMP              0 ****  ****    0 ROOT


##########                                Name:                  12
##########                DOCK_Rotatable_Bonds:                   0
##########                         Heavy_Atoms:                  14
##########                    Molecular_Weight:             194.193
##########                       Formal_Charge:        -2.23517e-08
##########                     HBond_Acceptors:                   6
##########                        HBond_Donors:                   0
##########                    Descriptor_Score:           41.884472
##########          Footprint_Similarity_Score:           12.574456
##########                 desc_FPS_vdw_energy:          -27.761148
##########                  desc_FPS_es_energy:           -0.174326
##########              desc_FPS_vdw+es_energy:          -27.935474
##########                  desc_FPS_num_hbond:                   1
##########                    desc_FPS_vdw_fps:           10.669918
##########                     desc_FPS_es_fps:            1.904538
##########                     desc_FPS_hb_fps:            1.000000
##########              desc_FPS_vdw_fp_numres:                 219
##########               desc_FPS_es_fp_numres:                 219
##########               desc_FPS_hb_fp_numres:                 219
##########                 Pharmacophore_Score:           20.000000
##########              desc_FMS_num_match_tot:                   0
##########              desc_FMS_max_match_ref:                  10
##########              desc_FMS_max_match_mol:                   5
##########                 desc_FMS_match_rate:            4.000000
##########                desc_FMS_match_resid:            0.000000
##########    desc_FMS_num_hydrophobic_matched:                   0
##########          desc_FMS_num_donor_matched:                   0
##########       desc_FMS_num_acceptor_matched:                   0
##########       desc_FMS_num_aromatic_matched:                   0
##########       desc_FMS_num_positive_matched:                   0
##########       desc_FMS_num_negative_matched:                   0
##########           desc_FMS_num_ring_matched:                   0
########## Hungarian_Matching_Similarity_Score:            9.310016
##########       desc_HMS_num_unmtchd_hvy_atms:                  23
##########           desc_HMS_num_ref_hvy_atms:                  23
##########        desc_HMS_rmsd_mtchd_hvy_atms:            9.310016
##########               Property_Volume_Score:            0.000000
##########               desc_VOS_geometric_vo:            0.000000
##########                desc_VOS_hvy_atom_vo:            0.000000
##########            desc_VOS_pos_chrg_atm_vo:            0.000000
##########            desc_VOS_neg_chrg_atm_vo:            0.000000
##########         desc_VOS_hydrophobic_atm_vo:            0.000000
##########         desc_VOS_hydrophilic_atm_vo:            0.000000
##########           Internal_energy_repulsive:            5.189373

@<TRIPOS>MOLECULE
12
 24 25 1 0 0
SMALL
GASTEIGER


@<TRIPOS>ATOM
      1 O          24.3142    9.7085   36.8577 O.2     1  UNL1       -0.2462
      2 C          23.7731    9.4126   37.9070 C.ar    1  UNL1        0.3331
      3 N          23.0042    8.2868   38.0344 N.ar    1  UNL1       -0.2622
      4 N          23.9114   10.1977   39.0145 N.ar    1  UNL1       -0.2796
      5 C          22.3656    7.8857   39.1725 C.ar    1  UNL1        0.2822
      6 C          22.8327    7.4046   36.8532 C.3     1  UNL1        0.0196
      7 C          23.3174    9.9166   40.2347 C.ar    1  UNL1        0.1678
      8 C          24.7249   11.4269   38.9852 C.3     1  UNL1        0.0181
      9 O          21.6975    6.8680   39.2155 O.2     1  UNL1       -0.2652
     10 C          22.5550    8.7816   40.3286 C.ar    1  UNL1        0.1512
     11 N          23.0603   10.0762   41.3059 N.ar    1  UNL1       -0.2177
     12 N          22.1689    8.8543   41.6333 N.ar    1  UNL1       -0.3277
     13 C          22.6345    9.9418   42.3248 C.ar    1  UNL1        0.0986
     14 C          21.3203    7.8453   42.2784 C.3     1  UNL1        0.0135
     15 H          23.3682    7.7700   35.9761 H       1  UNL1        0.0458
     16 H          21.7691    7.3387   36.6080 H       1  UNL1        0.0458
     17 H          23.2056    6.4062   37.0958 H       1  UNL1        0.0458
     18 H          25.1889   11.5869   38.0089 H       1  UNL1        0.0458
     19 H          25.5127   11.3538   39.7398 H       1  UNL1        0.0458
     20 H          24.0873   12.2846   39.2168 H       1  UNL1        0.0458
     21 H          22.4026   10.1180   43.3643 H       1  UNL1        0.1029
     22 H          21.0031    7.0863   41.5607 H       1  UNL1        0.0456
     23 H          20.4323    8.3270   42.6956 H       1  UNL1        0.0456
     24 H          21.8801    7.3591   43.0817 H       1  UNL1        0.0456
@<TRIPOS>BOND
     1     1     2    2
     2     2     3   ar
     3     2     4   ar
     4     3     5   ar
     5     3     6    1
     6     4     7   ar
     7     4     8    1
     8     5     9    2
     9     5    10   ar
    10     7    11   ar
    11    10    12   ar
    12    11    13   ar
    13    12    14    1
    14     7    10   ar
    15    12    13   ar
    16     6    15    1
    17     6    16    1
    18     6    17    1
    19     8    18    1
    20     8    19    1
    21     8    20    1
    22    13    21    1
    23    14    22    1
    24    14    23    1
    25    14    24    1
@<TRIPOS>SUBSTRUCTURE
     1 UNL1        1 TEMP              0 ****  ****    0 ROOT


##########                                Name:                  12
##########                DOCK_Rotatable_Bonds:                   0
##########                         Heavy_Atoms:                  14
##########                    Molecular_Weight:             194.193
##########                       Formal_Charge:        -2.23517e-08
##########                     HBond_Acceptors:                   6
##########                        HBond_Donors:                   0
##########                    Descriptor_Score:           42.541656
##########          Footprint_Similarity_Score:           12.839327
##########                 desc_FPS_vdw_energy:          -29.126486
##########                  desc_FPS_es_energy:           -0.199546
##########              desc_FPS_vdw+es_energy:          -29.326033
##########                  desc_FPS_num_hbond:                   1
##########                    desc_FPS_vdw_fps:           10.940057
##########                     desc_FPS_es_fps:            1.899270
##########                     desc_FPS_hb_fps:            1.000000
##########              desc_FPS_vdw_fp_numres:                 219
##########               desc_FPS_es_fp_numres:                 219
##########               desc_FPS_hb_fp_numres:                 219
##########                 Pharmacophore_Score:           20.000000
##########              desc_FMS_num_match_tot:                   0
##########              desc_FMS_max_match_ref:                  10
##########              desc_FMS_max_match_mol:                   5
##########                 desc_FMS_match_rate:            4.000000
##########                desc_FMS_match_resid:            0.000000
##########    desc_FMS_num_hydrophobic_matched:                   0
##########          desc_FMS_num_donor_matched:                   0
##########       desc_FMS_num_acceptor_matched:                   0
##########       desc_FMS_num_aromatic_matched:                   0
##########       desc_FMS_num_positive_matched:                   0
##########       desc_FMS_num_negative_matched:                   0
##########           desc_FMS_num_ring_matched:                   0
########## Hungarian_Matching_Similarity_Score:            9.702332
##########       desc_HMS_num_unmtchd_hvy_atms:                  23
##########           desc_HMS_num_ref_hvy_atms:                  23
##########        desc_HMS_rmsd_mtchd_hvy_atms:            9.702331
##########               Property_Volume_Score:            0.000000
##########               desc_VOS_geometric_vo:            0.000000
##########                desc_VOS_hvy_atom_vo:            0.000000
##########            desc_VOS_pos_chrg_atm_vo:            0.000000
##########            desc_VOS_neg_chrg_atm_vo:            0.000000
##########         desc_VOS_hydrophobic_atm_vo:            0.000000
##########         desc_VOS_hydrophilic_atm_vo:            0.000000
##########           Internal_energy_repulsive:            5.189982

@<TRIPOS>MOLECULE
12
 24 25 1 0 0
SMALL
GASTEIGER


@<TRIPOS>ATOM
      1 O          25.0203    9.3517   36.7644 O.2     1  UNL1       -0.2462
      2 C          24.3867    9.1280   37.7791 C.ar    1  UNL1        0.3331
      3 N          23.3694    8.2121   37.8119 N.ar    1  UNL1       -0.2622
      4 N          24.6660    9.7864   38.9412 N.ar    1  UNL1       -0.2796
      5 C          22.6129    7.9040   38.9059 C.ar    1  UNL1        0.2822
      6 C          23.0375    7.4721   36.5688 C.3     1  UNL1        0.0196
      7 C          23.9783    9.5788   40.1264 C.ar    1  UNL1        0.1678
      8 C          25.7476   10.7856   39.0144 C.3     1  UNL1        0.0181
      9 O          21.7220    7.0742   38.8642 O.2     1  UNL1       -0.2652
     10 C          22.9663    8.6546   40.1253 C.ar    1  UNL1        0.1512
     11 N          23.7273    9.7274   41.2007 N.ar    1  UNL1       -0.2177
     12 N          22.5610    8.7351   41.4237 N.ar    1  UNL1       -0.3277
     13 C          23.2448    9.6346   42.1987 C.ar    1  UNL1        0.0986
     14 C          21.4749    7.9189   41.9793 C.3     1  UNL1        0.0135
     15 H          23.6758    7.7538   35.7305 H       1  UNL1        0.0458
     16 H          21.9981    7.6771   36.2978 H       1  UNL1        0.0458
     17 H          23.1547    6.4005   36.7489 H       1  UNL1        0.0458
     18 H          26.2715   10.8914   38.0614 H       1  UNL1        0.0458
     19 H          26.4676   10.4797   39.7781 H       1  UNL1        0.0458
     20 H          25.3227   11.7542   39.2921 H       1  UNL1        0.0458
     21 H          23.0233    9.7953   43.2430 H       1  UNL1        0.1029
     22 H          21.0138    7.3039   41.2041 H       1  UNL1        0.0456
     23 H          20.7113    8.5711   42.4108 H       1  UNL1        0.0456
     24 H          21.8743    7.2638   42.7581 H       1  UNL1        0.0456
@<TRIPOS>BOND
     1     1     2    2
     2     2     3   ar
     3     2     4   ar
     4     3     5   ar
     5     3     6    1
     6     4     7   ar
     7     4     8    1
     8     5     9    2
     9     5    10   ar
    10     7    11   ar
    11    10    12   ar
    12    11    13   ar
    13    12    14    1
    14     7    10   ar
    15    12    13   ar
    16     6    15    1
    17     6    16    1
    18     6    17    1
    19     8    18    1
    20     8    19    1
    21     8    20    1
    22    13    21    1
    23    14    22    1
    24    14    23    1
    25    14    24    1
@<TRIPOS>SUBSTRUCTURE
     1 UNL1        1 TEMP              0 ****  ****    0 ROOT


##########                                Name:                  12
##########                DOCK_Rotatable_Bonds:                   0
##########                         Heavy_Atoms:                  14
##########                    Molecular_Weight:             194.193
##########                       Formal_Charge:        -2.23517e-08
##########                     HBond_Acceptors:                   6
##########                        HBond_Donors:                   0
##########                    Descriptor_Score:           41.704777
##########          Footprint_Similarity_Score:           12.395492
##########                 desc_FPS_vdw_energy:          -27.004721
##########                  desc_FPS_es_energy:           -0.119744
##########              desc_FPS_vdw+es_energy:          -27.124466
##########                  desc_FPS_num_hbond:                   1
##########                    desc_FPS_vdw_fps:           10.502922
##########                     desc_FPS_es_fps:            1.892570
##########                     desc_FPS_hb_fps:            1.000000
##########              desc_FPS_vdw_fp_numres:                 219
##########               desc_FPS_es_fp_numres:                 219
##########               desc_FPS_hb_fp_numres:                 219
##########                 Pharmacophore_Score:           20.000000
##########              desc_FMS_num_match_tot:                   0
##########              desc_FMS_max_match_ref:                  10
##########              desc_FMS_max_match_mol:                   5
##########                 desc_FMS_match_rate:            4.000000
##########                desc_FMS_match_resid:            0.000000
##########    desc_FMS_num_hydrophobic_matched:                   0
##########          desc_FMS_num_donor_matched:                   0
##########       desc_FMS_num_acceptor_matched:                   0
##########       desc_FMS_num_aromatic_matched:                   0
##########       desc_FMS_num_positive_matched:                   0
##########       desc_FMS_num_negative_matched:                   0
##########           desc_FMS_num_ring_matched:                   0
########## Hungarian_Matching_Similarity_Score:            9.309283
##########       desc_HMS_num_unmtchd_hvy_atms:                  23
##########           desc_HMS_num_ref_hvy_atms:                  23
##########        desc_HMS_rmsd_mtchd_hvy_atms:            9.309284
##########               Property_Volume_Score:            0.000000
##########               desc_VOS_geometric_vo:            0.000000
##########                desc_VOS_hvy_atom_vo:            0.000000
##########            desc_VOS_pos_chrg_atm_vo:            0.000000
##########            desc_VOS_neg_chrg_atm_vo:            0.000000
##########         desc_VOS_hydrophobic_atm_vo:            0.000000
##########         desc_VOS_hydrophilic_atm_vo:            0.000000
##########           Internal_energy_repulsive:            5.189709

@<TRIPOS>MOLECULE
12
 24 25 1 0 0
SMALL
GASTEIGER


@<TRIPOS>ATOM
      1 O          24.5339    9.4437   36.8952 O.2     1  UNL1       -0.2462
      2 C          23.9503    9.2468   37.9449 C.ar    1  UNL1        0.3331
      3 N          23.0754    8.2056   38.1042 N.ar    1  UNL1       -0.2622
      4 N          24.1451   10.0632   39.0208 N.ar    1  UNL1       -0.2796
      5 C          22.3832    7.9172   39.2451 C.ar    1  UNL1        0.2822
      6 C          22.8393    7.2926   36.9580 C.3     1  UNL1        0.0196
      7 C          23.5075    9.8935   40.2395 C.ar    1  UNL1        0.1678
      8 C          25.0728   11.2072   38.9561 C.3     1  UNL1        0.0181
      9 O          21.6202    6.9703   39.3175 O.2     1  UNL1       -0.2652
     10 C          22.6387    8.8411   40.3659 C.ar    1  UNL1        0.1512
     11 N          23.2497   10.1236   41.2977 N.ar    1  UNL1       -0.2177
     12 N          22.2405    9.0073   41.6583 N.ar    1  UNL1       -0.3277
     13 C          22.7966   10.0751   42.3125 C.ar    1  UNL1        0.0986
     14 C          21.2890    8.1126   42.3282 C.3     1  UNL1        0.0135
     15 H          23.4213    7.5667   36.0773 H       1  UNL1        0.0458
     16 H          21.7784    7.3171   36.6944 H       1  UNL1        0.0458
     17 H          23.1111    6.2750   37.2500 H       1  UNL1        0.0458
     18 H          25.5655   11.2794   37.9835 H       1  UNL1        0.0458
     19 H          25.8378   11.0930   39.7288 H       1  UNL1        0.0458
     20 H          24.5165   12.1308   39.1384 H       1  UNL1        0.0458
     21 H          22.5660   10.3179   43.3388 H       1  UNL1        0.1029
     22 H          20.9123    7.3563   41.6369 H       1  UNL1        0.0456
     23 H          20.4445    8.6942   42.7067 H       1  UNL1        0.0456
     24 H          21.7868    7.6113   43.1624 H       1  UNL1        0.0456
@<TRIPOS>BOND
     1     1     2    2
     2     2     3   ar
     3     2     4   ar
     4     3     5   ar
     5     3     6    1
     6     4     7   ar
     7     4     8    1
     8     5     9    2
     9     5    10   ar
    10     7    11   ar
    11    10    12   ar
    12    11    13   ar
    13    12    14    1
    14     7    10   ar
    15    12    13   ar
    16     6    15    1
    17     6    16    1
    18     6    17    1
    19     8    18    1
    20     8    19    1
    21     8    20    1
    22    13    21    1
    23    14    22    1
    24    14    23    1
    25    14    24    1
@<TRIPOS>SUBSTRUCTURE
     1 UNL1        1 TEMP              0 ****  ****    0 ROOT


##########                                Name:                  13
##########                DOCK_Rotatable_Bonds:                   6
##########                         Heavy_Atoms:                  13
##########                    Molecular_Weight:              180.16
##########                       Formal_Charge:         9.98974e-05
##########                     HBond_Acceptors:                   4
##########                        HBond_Donors:                   3
##########                    Descriptor_Score:           39.161079
##########          Footprint_Similarity_Score:           11.607357
##########                 desc_FPS_vdw_energy:          -23.083176
##########                  desc_FPS_es_energy:           -3.020970
##########              desc_FPS_vdw+es_energy:          -26.104145
##########                  desc_FPS_num_hbond:                   2
##########                    desc_FPS_vdw_fps:            8.858864
##########                     desc_FPS_es_fps:            2.748493
##########                     desc_FPS_hb_fps:            2.000000
##########              desc_FPS_vdw_fp_numres:                 219
##########               desc_FPS_es_fp_numres:                 219
##########               desc_FPS_hb_fp_numres:                 219
##########                 Pharmacophore_Score:           20.000000
##########              desc_FMS_num_match_tot:                   0
##########              desc_FMS_max_match_ref:                  10
##########              desc_FMS_max_match_mol:                  10
##########                 desc_FMS_match_rate:            4.000000
##########                desc_FMS_match_resid:            0.000000
##########    desc_FMS_num_hydrophobic_matched:                   0
##########          desc_FMS_num_donor_matched:                   0
##########       desc_FMS_num_acceptor_matched:                   0
##########       desc_FMS_num_aromatic_matched:                   0
##########       desc_FMS_num_positive_matched:                   0
##########       desc_FMS_num_negative_matched:                   0
##########           desc_FMS_num_ring_matched:                   0
########## Hungarian_Matching_Similarity_Score:            7.553722
##########       desc_HMS_num_unmtchd_hvy_atms:                  14
##########           desc_HMS_num_ref_hvy_atms:                  23
##########        desc_HMS_rmsd_mtchd_hvy_atms:            9.510244
##########               Property_Volume_Score:            0.000000
##########               desc_VOS_geometric_vo:            0.000000
##########                desc_VOS_hvy_atom_vo:            0.000000
##########            desc_VOS_pos_chrg_atm_vo:            0.000000
##########            desc_VOS_neg_chrg_atm_vo:            0.000000
##########         desc_VOS_hydrophobic_atm_vo:            0.000000
##########         desc_VOS_hydrophilic_atm_vo:            0.000000
##########           Internal_energy_repulsive:            3.196919

@<TRIPOS>MOLECULE
13
 21 21 1 0 0
SMALL
GASTEIGER


@<TRIPOS>ATOM
      1 O          22.8096   14.2074   44.5876 O.2     1  UNL1       -0.2458
      2 C          23.1882   13.8876   43.4799 C.2     1  UNL1        0.3296
      3 O          23.8104   14.7358   42.7004 O.3     1  UNL1       -0.4775
      4 C          22.9373   12.5310   42.9322 C.2     1  UNL1        0.0229
      5 C          23.2025   12.0486   41.7063 C.2     1  UNL1       -0.0477
      6 C          22.9358   10.6839   41.1968 C.ar    1  UNL1       -0.0211
      7 C          22.4079    9.7022   42.0414 C.ar    1  UNL1       -0.0094
      8 C          23.1815   10.3744   39.8561 C.ar    1  UNL1       -0.0509
      9 C          22.1159    8.4306   41.5447 C.ar    1  UNL1        0.1588
     10 C          22.8840    9.1048   39.3584 C.ar    1  UNL1       -0.0160
     11 O          21.6022    7.4575   42.3537 O.3     1  UNL1       -0.5033
     12 C          22.3421    8.1379   40.2027 C.ar    1  UNL1        0.1582
     13 O          22.0159    6.8990   39.7413 O.3     1  UNL1       -0.5033
     14 H          24.0123   14.3061   41.8547 H       1  UNL1        0.2954
     15 H          22.4662   11.8390   43.6300 H       1  UNL1        0.0689
     16 H          23.6598   12.7146   40.9760 H       1  UNL1        0.0626
     17 H          22.2140    9.9319   43.0864 H       1  UNL1        0.0661
     18 H          23.5958   11.1267   39.1889 H       1  UNL1        0.0625
     19 H          23.0668    8.8731   38.3118 H       1  UNL1        0.0655
     20 H          21.4867    6.6362   41.8517 H       1  UNL1        0.2923
     21 H          21.6424    6.4081   40.5075 H       1  UNL1        0.2923
@<TRIPOS>BOND
     1     1     2    2
     2     2     3    1
     3     2     4    1
     4     4     5    2
     5     5     6    1
     6     6     7   ar
     7     6     8   ar
     8     7     9   ar
     9     8    10   ar
    10     9    11    1
    11     9    12   ar
    12    12    13    1
    13    10    12   ar
    14     3    14    1
    15     4    15    1
    16     5    16    1
    17     7    17    1
    18     8    18    1
    19    10    19    1
    20    11    20    1
    21    13    21    1
@<TRIPOS>SUBSTRUCTURE
     1 UNL1        1 TEMP              0 ****  ****    0 ROOT


##########                                Name:                  13
##########                DOCK_Rotatable_Bonds:                   6
##########                         Heavy_Atoms:                  13
##########                    Molecular_Weight:              180.16
##########                       Formal_Charge:         9.98974e-05
##########                     HBond_Acceptors:                   4
##########                        HBond_Donors:                   3
##########                    Descriptor_Score:           39.604839
##########          Footprint_Similarity_Score:           12.017893
##########                 desc_FPS_vdw_energy:          -21.869743
##########                  desc_FPS_es_energy:           -3.724916
##########              desc_FPS_vdw+es_energy:          -25.594660
##########                  desc_FPS_num_hbond:                   2
##########                    desc_FPS_vdw_fps:            8.725615
##########                     desc_FPS_es_fps:            3.292277
##########                     desc_FPS_hb_fps:            2.000000
##########              desc_FPS_vdw_fp_numres:                 219
##########               desc_FPS_es_fp_numres:                 219
##########               desc_FPS_hb_fp_numres:                 219
##########                 Pharmacophore_Score:           20.000000
##########              desc_FMS_num_match_tot:                   0
##########              desc_FMS_max_match_ref:                  10
##########              desc_FMS_max_match_mol:                  10
##########                 desc_FMS_match_rate:            4.000000
##########                desc_FMS_match_resid:            0.000000
##########    desc_FMS_num_hydrophobic_matched:                   0
##########          desc_FMS_num_donor_matched:                   0
##########       desc_FMS_num_acceptor_matched:                   0
##########       desc_FMS_num_aromatic_matched:                   0
##########       desc_FMS_num_positive_matched:                   0
##########       desc_FMS_num_negative_matched:                   0
##########           desc_FMS_num_ring_matched:                   0
########## Hungarian_Matching_Similarity_Score:            7.586947
##########       desc_HMS_num_unmtchd_hvy_atms:                  14
##########           desc_HMS_num_ref_hvy_atms:                  23
##########        desc_HMS_rmsd_mtchd_hvy_atms:            9.543469
##########               Property_Volume_Score:            0.000000
##########               desc_VOS_geometric_vo:            0.000000
##########                desc_VOS_hvy_atom_vo:            0.000000
##########            desc_VOS_pos_chrg_atm_vo:            0.000000
##########            desc_VOS_neg_chrg_atm_vo:            0.000000
##########         desc_VOS_hydrophobic_atm_vo:            0.000000
##########         desc_VOS_hydrophilic_atm_vo:            0.000000
##########           Internal_energy_repulsive:            3.007313

@<TRIPOS>MOLECULE
13
 21 21 1 0 0
SMALL
GASTEIGER


@<TRIPOS>ATOM
      1 O          23.5048   14.7136   42.6448 O.2     1  UNL1       -0.2458
      2 C          23.0984   13.8291   43.3695 C.2     1  UNL1        0.3296
      3 O          22.8584   14.0433   44.6386 O.3     1  UNL1       -0.4775
      4 C          22.8843   12.4484   42.8687 C.2     1  UNL1        0.0229
      5 C          23.0425   11.9627   41.6257 C.2     1  UNL1       -0.0477
      6 C          22.8177   10.5735   41.1646 C.ar    1  UNL1       -0.0211
      7 C          22.3064    9.6098   42.0397 C.ar    1  UNL1       -0.0094
      8 C          23.0866   10.2213   39.8390 C.ar    1  UNL1       -0.0509
      9 C          22.0536    8.3134   41.5878 C.ar    1  UNL1        0.1588
     10 C          22.8283    8.9267   39.3859 C.ar    1  UNL1       -0.0160
     11 O          21.5567    7.3574   42.4271 O.3     1  UNL1       -0.5033
     12 C          22.3026    7.9774   40.2601 C.ar    1  UNL1        0.1582
     13 O          22.0144    6.7141   39.8418 O.3     1  UNL1       -0.5033
     14 H          22.5711   13.2159   45.0552 H       1  UNL1        0.2954
     15 H          22.5458   11.7384   43.6231 H       1  UNL1        0.0689
     16 H          23.3655   12.6450   40.8408 H       1  UNL1        0.0626
     17 H          22.0947    9.8727   43.0734 H       1  UNL1        0.0661
     18 H          23.4884   10.9593   39.1485 H       1  UNL1        0.0625
     19 H          23.0290    8.6614   38.3506 H       1  UNL1        0.0655
     20 H          21.5018    6.5069   41.9650 H       1  UNL1        0.2923
     21 H          21.7413    6.2130   40.6430 H       1  UNL1        0.2923
@<TRIPOS>BOND
     1     1     2    2
     2     2     3    1
     3     2     4    1
     4     4     5    2
     5     5     6    1
     6     6     7   ar
     7     6     8   ar
     8     7     9   ar
     9     8    10   ar
    10     9    11    1
    11     9    12   ar
    12    12    13    1
    13    10    12   ar
    14     3    14    1
    15     4    15    1
    16     5    16    1
    17     7    17    1
    18     8    18    1
    19    10    19    1
    20    11    20    1
    21    13    21    1
@<TRIPOS>SUBSTRUCTURE
     1 UNL1        1 TEMP              0 ****  ****    0 ROOT


##########                                Name:                  13
##########                DOCK_Rotatable_Bonds:                   6
##########                         Heavy_Atoms:                  13
##########                    Molecular_Weight:              180.16
##########                       Formal_Charge:         9.98974e-05
##########                     HBond_Acceptors:                   4
##########                        HBond_Donors:                   3
##########                    Descriptor_Score:           41.090965
##########          Footprint_Similarity_Score:           12.059999
##########                 desc_FPS_vdw_energy:          -23.085045
##########                  desc_FPS_es_energy:           -3.829392
##########              desc_FPS_vdw+es_energy:          -26.914436
##########                  desc_FPS_num_hbond:                   1
##########                    desc_FPS_vdw_fps:            9.255177
##########                     desc_FPS_es_fps:            2.804823
##########                     desc_FPS_hb_fps:            1.000000
##########              desc_FPS_vdw_fp_numres:                 219
##########               desc_FPS_es_fp_numres:                 219
##########               desc_FPS_hb_fp_numres:                 219
##########                 Pharmacophore_Score:           20.000000
##########              desc_FMS_num_match_tot:                   0
##########              desc_FMS_max_match_ref:                  10
##########              desc_FMS_max_match_mol:                  10
##########                 desc_FMS_match_rate:            4.000000
##########                desc_FMS_match_resid:            0.000000
##########    desc_FMS_num_hydrophobic_matched:                   0
##########          desc_FMS_num_donor_matched:                   0
##########       desc_FMS_num_acceptor_matched:                   0
##########       desc_FMS_num_aromatic_matched:                   0
##########       desc_FMS_num_positive_matched:                   0
##########       desc_FMS_num_negative_matched:                   0
##########           desc_FMS_num_ring_matched:                   0
########## Hungarian_Matching_Similarity_Score:            9.030969
##########       desc_HMS_num_unmtchd_hvy_atms:                  14
##########           desc_HMS_num_ref_hvy_atms:                  23
##########        desc_HMS_rmsd_mtchd_hvy_atms:           10.987490
##########               Property_Volume_Score:            0.000000
##########               desc_VOS_geometric_vo:            0.000000
##########                desc_VOS_hvy_atom_vo:            0.000000
##########            desc_VOS_pos_chrg_atm_vo:            0.000000
##########            desc_VOS_neg_chrg_atm_vo:            0.000000
##########         desc_VOS_hydrophobic_atm_vo:            0.000000
##########         desc_VOS_hydrophilic_atm_vo:            0.000000
##########           Internal_energy_repulsive:            1.714037

@<TRIPOS>MOLECULE
13
 21 21 1 0 0
SMALL
GASTEIGER


@<TRIPOS>ATOM
      1 O          26.1257    7.9157   37.4599 O.2     1  UNL1       -0.2458
      2 C          25.2873    8.6063   36.9188 C.2     1  UNL1        0.3296
      3 O          25.5423    9.8427   36.5717 O.3     1  UNL1       -0.4775
      4 C          23.9168    8.1024   36.6521 C.2     1  UNL1        0.0229
      5 C          22.8419    8.0999   37.4588 C.2     1  UNL1       -0.0477
      6 C          22.7540    8.6105   38.8460 C.ar    1  UNL1       -0.0211
      7 C          22.2558    7.7990   39.8702 C.ar    1  UNL1       -0.0094
      8 C          23.1984    9.9006   39.1489 C.ar    1  UNL1       -0.0509
      9 C          22.2175    8.2693   41.1841 C.ar    1  UNL1        0.1588
     10 C          23.1654   10.3685   40.4635 C.ar    1  UNL1       -0.0160
     11 O          21.7324    7.4933   42.1979 O.3     1  UNL1       -0.5033
     12 C          22.6835    9.5470   41.4806 C.ar    1  UNL1        0.1582
     13 O          22.6636    9.9642   42.7766 O.3     1  UNL1       -0.5033
     14 H          24.7072   10.3185   36.4419 H       1  UNL1        0.2954
     15 H          23.7758    7.6709   35.6614 H       1  UNL1        0.0689
     16 H          21.9090    7.6885   37.0763 H       1  UNL1        0.0626
     17 H          21.9063    6.7941   39.6455 H       1  UNL1        0.0661
     18 H          23.5844   10.5443   38.3618 H       1  UNL1        0.0625
     19 H          23.5229   11.3691   40.6951 H       1  UNL1        0.0655
     20 H          21.4008    6.6541   41.8432 H       1  UNL1        0.2923
     21 H          23.3248   10.6893   42.8439 H       1  UNL1        0.2923
@<TRIPOS>BOND
     1     1     2    2
     2     2     3    1
     3     2     4    1
     4     4     5    2
     5     5     6    1
     6     6     7   ar
     7     6     8   ar
     8     7     9   ar
     9     8    10   ar
    10     9    11    1
    11     9    12   ar
    12    12    13    1
    13    10    12   ar
    14     3    14    1
    15     4    15    1
    16     5    16    1
    17     7    17    1
    18     8    18    1
    19    10    19    1
    20    11    20    1
    21    13    21    1
@<TRIPOS>SUBSTRUCTURE
     1 UNL1        1 TEMP              0 ****  ****    0 ROOT


##########                                Name:                  15
##########                DOCK_Rotatable_Bonds:                   4
##########                         Heavy_Atoms:                  22
##########                    Molecular_Weight:             302.197
##########                       Formal_Charge:         5.96046e-08
##########                     HBond_Acceptors:                   8
##########                        HBond_Donors:                   4
##########                    Descriptor_Score:           42.644302
##########          Footprint_Similarity_Score:           13.215900
##########                 desc_FPS_vdw_energy:          -29.786282
##########                  desc_FPS_es_energy:           -2.330268
##########              desc_FPS_vdw+es_energy:          -32.116550
##########                  desc_FPS_num_hbond:                   1
##########                    desc_FPS_vdw_fps:           10.791788
##########                     desc_FPS_es_fps:            2.424112
##########                     desc_FPS_hb_fps:            1.000000
##########              desc_FPS_vdw_fp_numres:                 219
##########               desc_FPS_es_fp_numres:                 219
##########               desc_FPS_hb_fp_numres:                 219
##########                 Pharmacophore_Score:           20.000000
##########              desc_FMS_num_match_tot:                   0
##########              desc_FMS_max_match_ref:                  10
##########              desc_FMS_max_match_mol:                  16
##########                 desc_FMS_match_rate:            4.000000
##########                desc_FMS_match_resid:            0.000000
##########    desc_FMS_num_hydrophobic_matched:                   0
##########          desc_FMS_num_donor_matched:                   0
##########       desc_FMS_num_acceptor_matched:                   0
##########       desc_FMS_num_aromatic_matched:                   0
##########       desc_FMS_num_positive_matched:                   0
##########       desc_FMS_num_negative_matched:                   0
##########           desc_FMS_num_ring_matched:                   0
########## Hungarian_Matching_Similarity_Score:            9.428401
##########       desc_HMS_num_unmtchd_hvy_atms:                  13
##########           desc_HMS_num_ref_hvy_atms:                  23
##########        desc_HMS_rmsd_mtchd_hvy_atms:           11.602314
##########               Property_Volume_Score:            0.000000
##########               desc_VOS_geometric_vo:            0.000000
##########                desc_VOS_hvy_atom_vo:            0.000000
##########            desc_VOS_pos_chrg_atm_vo:            0.000000
##########            desc_VOS_neg_chrg_atm_vo:            0.000000
##########         desc_VOS_hydrophobic_atm_vo:            0.000000
##########         desc_VOS_hydrophilic_atm_vo:            0.000000
##########           Internal_energy_repulsive:            1.365307

@<TRIPOS>MOLECULE
15
 28 31 1 0 0
SMALL
GASTEIGER


@<TRIPOS>ATOM
      1 O          21.6142    7.8838   42.5461 O.2     1  UNL1       -0.2445
      2 C          22.0943    8.8513   41.9940 C.ar    1  UNL1        0.3454
      3 O          22.3073   10.0081   42.6749 O.2     1  UNL1       -0.4178
      4 C          22.4865    8.8803   40.5715 C.ar    1  UNL1        0.0744
      5 C          22.8595   11.1551   42.1337 C.ar    1  UNL1        0.1854
      6 C          23.0471   10.0654   39.9785 C.ar    1  UNL1        0.0468
      7 C          22.3367    7.7406   39.6889 C.ar    1  UNL1       -0.0017
      8 C          23.0242   12.3263   42.9469 C.ar    1  UNL1        0.2022
      9 C          23.2299   11.1933   40.7516 C.ar    1  UNL1        0.0468
     10 C          23.4165   10.1047   38.5974 C.ar    1  UNL1        0.1854
     11 C          22.7128    7.7776   38.3419 C.ar    1  UNL1        0.1628
     12 O          22.6653   12.3213   44.2634 O.3     1  UNL1       -0.5009
     13 C          23.5647   13.4780   42.3747 C.ar    1  UNL1        0.1628
     14 C          23.7923   12.3758   40.1538 C.ar    1  UNL1        0.0744
     15 O          23.9758   11.2475   38.0561 O.2     1  UNL1       -0.4178
     16 C          23.2523    8.9354   37.7854 C.ar    1  UNL1        0.2022
     17 O          22.5552    6.6768   37.5534 O.3     1  UNL1       -0.5032
     18 O          23.7228   14.5801   43.1545 O.3     1  UNL1       -0.5032
     19 C          23.9416   13.5165   41.0307 C.ar    1  UNL1       -0.0017
     20 C          24.1890   12.4041   38.7339 C.ar    1  UNL1        0.3454
     21 O          23.6240    8.9884   36.4794 O.3     1  UNL1       -0.5009
     22 O          24.6726   13.3695   38.1810 O.2     1  UNL1       -0.2445
     23 H          21.9158    6.8319   40.1132 H       1  UNL1        0.0664
     24 H          22.4165   11.4085   44.5073 H       1  UNL1        0.2924
     25 H          22.8365    6.8663   36.6512 H       1  UNL1        0.2923
     26 H          23.3685   14.3426   44.0360 H       1  UNL1        0.2923
     27 H          24.3610   14.4301   40.6152 H       1  UNL1        0.0664
     28 H          23.9451    9.8887   36.3175 H       1  UNL1        0.2924
@<TRIPOS>BOND
     1     1     2    2
     2     2     3   ar
     3     2     4   ar
     4     3     5   ar
     5     4     6   ar
     6     4     7   ar
     7     5     8   ar
     8     5     9   ar
     9     6    10   ar
    10     7    11   ar
    11     8    12    1
    12     8    13   ar
    13     9    14   ar
    14    10    15   ar
    15    10    16   ar
    16    11    17    1
    17    13    18    1
    18    13    19   ar
    19    14    20   ar
    20    16    21    1
    21    20    22    2
    22     6     9   ar
    23    11    16   ar
    24    14    19   ar
    25    15    20   ar
    26     7    23    1
    27    12    24    1
    28    17    25    1
    29    18    26    1
    30    19    27    1
    31    21    28    1
@<TRIPOS>SUBSTRUCTURE
     1 UNL1        1 TEMP              0 ****  ****    0 ROOT


##########                                Name:                  15
##########                DOCK_Rotatable_Bonds:                   4
##########                         Heavy_Atoms:                  22
##########                    Molecular_Weight:             302.197
##########                       Formal_Charge:         5.96046e-08
##########                     HBond_Acceptors:                   8
##########                        HBond_Donors:                   4
##########                    Descriptor_Score:           42.518291
##########          Footprint_Similarity_Score:           13.099651
##########                 desc_FPS_vdw_energy:          -29.786743
##########                  desc_FPS_es_energy:           -2.167325
##########              desc_FPS_vdw+es_energy:          -31.954067
##########                  desc_FPS_num_hbond:                   1
##########                    desc_FPS_vdw_fps:           10.791762
##########                     desc_FPS_es_fps:            2.307889
##########                     desc_FPS_hb_fps:            1.000000
##########              desc_FPS_vdw_fp_numres:                 219
##########               desc_FPS_es_fp_numres:                 219
##########               desc_FPS_hb_fp_numres:                 219
##########                 Pharmacophore_Score:           20.000000
##########              desc_FMS_num_match_tot:                   0
##########              desc_FMS_max_match_ref:                  10
##########              desc_FMS_max_match_mol:                  16
##########                 desc_FMS_match_rate:            4.000000
##########                desc_FMS_match_resid:            0.000000
##########    desc_FMS_num_hydrophobic_matched:                   0
##########          desc_FMS_num_donor_matched:                   0
##########       desc_FMS_num_acceptor_matched:                   0
##########       desc_FMS_num_aromatic_matched:                   0
##########       desc_FMS_num_positive_matched:                   0
##########       desc_FMS_num_negative_matched:                   0
##########           desc_FMS_num_ring_matched:                   0
########## Hungarian_Matching_Similarity_Score:            9.418640
##########       desc_HMS_num_unmtchd_hvy_atms:                  13
##########           desc_HMS_num_ref_hvy_atms:                  23
##########        desc_HMS_rmsd_mtchd_hvy_atms:           11.592553
##########               Property_Volume_Score:            0.000000
##########               desc_VOS_geometric_vo:            0.000000
##########                desc_VOS_hvy_atom_vo:            0.000000
##########            desc_VOS_pos_chrg_atm_vo:            0.000000
##########            desc_VOS_neg_chrg_atm_vo:            0.000000
##########         desc_VOS_hydrophobic_atm_vo:            0.000000
##########         desc_VOS_hydrophilic_atm_vo:            0.000000
##########           Internal_energy_repulsive:            1.365286

@<TRIPOS>MOLECULE
15
 28 31 1 0 0
SMALL
GASTEIGER


@<TRIPOS>ATOM
      1 O          21.5856    7.9392   42.5966 O.2     1  UNL1       -0.2445
      2 C          22.0781    8.8969   42.0383 C.ar    1  UNL1        0.3454
      3 O          22.3003   10.0572   42.7104 O.2     1  UNL1       -0.4178
      4 C          22.4766    8.9097   40.6174 C.ar    1  UNL1        0.0744
      5 C          22.8667   11.1938   42.1618 C.ar    1  UNL1        0.1854
      6 C          23.0520   10.0838   40.0168 C.ar    1  UNL1        0.0468
      7 C          22.3187    7.7641   39.7439 C.ar    1  UNL1       -0.0017
      8 C          23.0401   12.3700   42.9657 C.ar    1  UNL1        0.2022
      9 C          23.2433   11.2162   40.7810 C.ar    1  UNL1        0.0468
     10 C          23.4277   10.1074   38.6370 C.ar    1  UNL1        0.1854
     11 C          22.7009    7.7856   38.3982 C.ar    1  UNL1        0.1628
     12 O          22.6756   12.3800   44.2806 O.3     1  UNL1       -0.5009
     13 C          23.5950   13.5112   42.3861 C.ar    1  UNL1        0.1628
     14 C          23.8205   12.3878   40.1757 C.ar    1  UNL1        0.0744
     15 O          24.0012   11.2397   38.0884 O.2     1  UNL1       -0.4178
     16 C          23.2547    8.9330   37.8343 C.ar    1  UNL1        0.2022
     17 O          22.5352    6.6799   37.6185 O.3     1  UNL1       -0.5032
     18 O          23.7613   14.6182   43.1572 O.3     1  UNL1       -0.5032
     19 C          23.9780   13.5343   41.0435 C.ar    1  UNL1       -0.0017
     20 C          24.2235   12.3998   38.7573 C.ar    1  UNL1        0.3454
     21 O          23.6326    8.9710   36.5295 O.3     1  UNL1       -0.5009
     22 O          24.7195   13.3554   38.1983 O.2     1  UNL1       -0.2445
     23 H          21.8865    6.8635   40.1740 H       1  UNL1        0.0664
     24 H          22.4145   11.4724   44.5308 H       1  UNL1        0.2924
     25 H          22.8453    6.8510   36.7221 H       1  UNL1        0.2923
     26 H          23.3772   14.4008   44.0314 H       1  UNL1        0.2923
     27 H          24.4086   14.4399   40.6220 H       1  UNL1        0.0664
     28 H          23.4349    8.0982   36.1567 H       1  UNL1        0.2924
@<TRIPOS>BOND
     1     1     2    2
     2     2     3   ar
     3     2     4   ar
     4     3     5   ar
     5     4     6   ar
     6     4     7   ar
     7     5     8   ar
     8     5     9   ar
     9     6    10   ar
    10     7    11   ar
    11     8    12    1
    12     8    13   ar
    13     9    14   ar
    14    10    15   ar
    15    10    16   ar
    16    11    17    1
    17    13    18    1
    18    13    19   ar
    19    14    20   ar
    20    16    21    1
    21    20    22    2
    22     6     9   ar
    23    11    16   ar
    24    14    19   ar
    25    15    20   ar
    26     7    23    1
    27    12    24    1
    28    17    25    1
    29    18    26    1
    30    19    27    1
    31    21    28    1
@<TRIPOS>SUBSTRUCTURE
     1 UNL1        1 TEMP              0 ****  ****    0 ROOT


##########                                Name:                  15
##########                DOCK_Rotatable_Bonds:                   4
##########                         Heavy_Atoms:                  22
##########                    Molecular_Weight:             302.197
##########                       Formal_Charge:         5.96046e-08
##########                     HBond_Acceptors:                   8
##########                        HBond_Donors:                   4
##########                    Descriptor_Score:           42.760506
##########          Footprint_Similarity_Score:           13.288515
##########                 desc_FPS_vdw_energy:          -30.251404
##########                  desc_FPS_es_energy:           -2.067119
##########              desc_FPS_vdw+es_energy:          -32.318523
##########                  desc_FPS_num_hbond:                   1
##########                    desc_FPS_vdw_fps:           10.784007
##########                     desc_FPS_es_fps:            2.504508
##########                     desc_FPS_hb_fps:            1.000000
##########              desc_FPS_vdw_fp_numres:                 219
##########               desc_FPS_es_fp_numres:                 219
##########               desc_FPS_hb_fp_numres:                 219
##########                 Pharmacophore_Score:           20.000000
##########              desc_FMS_num_match_tot:                   0
##########              desc_FMS_max_match_ref:                  10
##########              desc_FMS_max_match_mol:                  16
##########                 desc_FMS_match_rate:            4.000000
##########                desc_FMS_match_resid:            0.000000
##########    desc_FMS_num_hydrophobic_matched:                   0
##########          desc_FMS_num_donor_matched:                   0
##########       desc_FMS_num_acceptor_matched:                   0
##########       desc_FMS_num_aromatic_matched:                   0
##########       desc_FMS_num_positive_matched:                   0
##########       desc_FMS_num_negative_matched:                   0
##########           desc_FMS_num_ring_matched:                   0
########## Hungarian_Matching_Similarity_Score:            9.471992
##########       desc_HMS_num_unmtchd_hvy_atms:                  13
##########           desc_HMS_num_ref_hvy_atms:                  23
##########        desc_HMS_rmsd_mtchd_hvy_atms:           11.645904
##########               Property_Volume_Score:            0.000000
##########               desc_VOS_geometric_vo:            0.000000
##########                desc_VOS_hvy_atom_vo:            0.000000
##########            desc_VOS_pos_chrg_atm_vo:            0.000000
##########            desc_VOS_neg_chrg_atm_vo:            0.000000
##########         desc_VOS_hydrophobic_atm_vo:            0.000000
##########         desc_VOS_hydrophilic_atm_vo:            0.000000
##########           Internal_energy_repulsive:            1.365190

@<TRIPOS>MOLECULE
15
 28 31 1 0 0
SMALL
GASTEIGER


@<TRIPOS>ATOM
      1 O          21.6979    7.8673   42.4443 O.2     1  UNL1       -0.2445
      2 C          22.1674    8.8517   41.9134 C.ar    1  UNL1        0.3454
      3 O          22.3546   10.0002   42.6158 O.2     1  UNL1       -0.4178
      4 C          22.5730    8.9112   40.4957 C.ar    1  UNL1        0.0744
      5 C          22.8930   11.1651   42.0995 C.ar    1  UNL1        0.1854
      6 C          23.1198   10.1152   39.9284 C.ar    1  UNL1        0.0468
      7 C          22.4508    7.7844   39.5926 C.ar    1  UNL1       -0.0017
      8 C          23.0304   12.3248   42.9339 C.ar    1  UNL1        0.2022
      9 C          23.2764   11.2327   40.7221 C.ar    1  UNL1        0.0468
     10 C          23.5021   10.1839   38.5519 C.ar    1  UNL1        0.1854
     11 C          22.8394    7.8503   38.2502 C.ar    1  UNL1        0.1628
     12 O          22.6587   12.2916   44.2464 O.3     1  UNL1       -0.5009
     13 C          23.5574   13.4947   42.3867 C.ar    1  UNL1        0.1628
     14 C          23.8250   12.4342   40.1500 C.ar    1  UNL1        0.0744
     15 O          24.0478   11.3448   38.0355 O.2     1  UNL1       -0.4178
     16 C          23.3652    9.0261   37.7188 C.ar    1  UNL1        0.2022
     17 O          22.7078    6.7607   37.4419 O.3     1  UNL1       -0.5032
     18 O          23.6897   14.5858   43.1864 O.3     1  UNL1       -0.5032
     19 C          23.9469   13.5621   41.0474 C.ar    1  UNL1       -0.0017
     20 C          24.2352   12.4930   38.7348 C.ar    1  UNL1        0.3454
     21 O          23.7488    9.1073   36.4177 O.3     1  UNL1       -0.5009
     22 O          24.7082   13.4754   38.2031 O.2     1  UNL1       -0.2445
     23 H          22.0407    6.8619   39.9972 H       1  UNL1        0.0664
     24 H          22.4539   11.3656   44.4812 H       1  UNL1        0.2924
     25 H          22.3494    6.0157   37.9374 H       1  UNL1        0.2923
     26 H          23.2773   14.3474   44.0420 H       1  UNL1        0.2923
     27 H          24.3552   14.4894   40.6515 H       1  UNL1        0.0664
     28 H          24.0335   10.0217   36.2678 H       1  UNL1        0.2924
@<TRIPOS>BOND
     1     1     2    2
     2     2     3   ar
     3     2     4   ar
     4     3     5   ar
     5     4     6   ar
     6     4     7   ar
     7     5     8   ar
     8     5     9   ar
     9     6    10   ar
    10     7    11   ar
    11     8    12    1
    12     8    13   ar
    13     9    14   ar
    14    10    15   ar
    15    10    16   ar
    16    11    17    1
    17    13    18    1
    18    13    19   ar
    19    14    20   ar
    20    16    21    1
    21    20    22    2
    22     6     9   ar
    23    11    16   ar
    24    14    19   ar
    25    15    20   ar
    26     7    23    1
    27    12    24    1
    28    17    25    1
    29    18    26    1
    30    19    27    1
    31    21    28    1
@<TRIPOS>SUBSTRUCTURE
     1 UNL1        1 TEMP              0 ****  ****    0 ROOT


##########                                Name:                  16
##########                DOCK_Rotatable_Bonds:                   8
##########                         Heavy_Atoms:                  24
##########                    Molecular_Weight:             340.287
##########                       Formal_Charge:         0.000100136
##########                     HBond_Acceptors:                   9
##########                        HBond_Donors:                   5
##########                    Descriptor_Score:           13.690306
##########          Footprint_Similarity_Score:            5.302505
##########                 desc_FPS_vdw_energy:          -35.052383
##########                  desc_FPS_es_energy:           -3.015140
##########              desc_FPS_vdw+es_energy:          -38.067524
##########                  desc_FPS_num_hbond:                   2
##########                    desc_FPS_vdw_fps:            3.479820
##########                     desc_FPS_es_fps:            1.822684
##########                     desc_FPS_hb_fps:            1.414214
##########              desc_FPS_vdw_fp_numres:                 219
##########               desc_FPS_es_fp_numres:                 219
##########               desc_FPS_hb_fp_numres:                 219
##########                 Pharmacophore_Score:            5.515722
##########              desc_FMS_num_match_tot:                   1
##########              desc_FMS_max_match_ref:                  10
##########              desc_FMS_max_match_mol:                  17
##########                 desc_FMS_match_rate:            0.900000
##########                desc_FMS_match_resid:            1.015722
##########    desc_FMS_num_hydrophobic_matched:                   0
##########          desc_FMS_num_donor_matched:                   0
##########       desc_FMS_num_acceptor_matched:                   1
##########       desc_FMS_num_aromatic_matched:                   0
##########       desc_FMS_num_positive_matched:                   0
##########       desc_FMS_num_negative_matched:                   0
##########           desc_FMS_num_ring_matched:                   0
########## Hungarian_Matching_Similarity_Score:            3.173352
##########       desc_HMS_num_unmtchd_hvy_atms:                  23
##########           desc_HMS_num_ref_hvy_atms:                  23
##########        desc_HMS_rmsd_mtchd_hvy_atms:            3.173352
##########               Property_Volume_Score:            0.301271
##########               desc_VOS_geometric_vo:            0.556913
##########                desc_VOS_hvy_atom_vo:            0.535206
##########            desc_VOS_pos_chrg_atm_vo:            0.203718
##########            desc_VOS_neg_chrg_atm_vo:            0.176599
##########         desc_VOS_hydrophobic_atm_vo:            0.207651
##########         desc_VOS_hydrophilic_atm_vo:            0.127541
##########           Internal_energy_repulsive:            5.044422

@<TRIPOS>MOLECULE
16
 40 42 1 0 0
SMALL
GASTEIGER


@<TRIPOS>ATOM
      1 O          20.0018   15.0186   43.7042 O.2     1  UNL1       -0.2452
      2 C          18.9099   14.5838   43.4036 C.ar    1  UNL1        0.3372
      3 O          17.9397   14.4103   44.3348 O.2     1  UNL1       -0.4220
      4 C          18.5240   14.2119   42.0326 C.ar    1  UNL1        0.0236
      5 C          16.6962   13.8680   44.0825 C.ar    1  UNL1        0.1427
      6 C          17.2074   13.7379   41.7074 C.ar    1  UNL1       -0.0442
      7 C          16.2874   13.5800   42.7358 C.ar    1  UNL1        0.0213
      8 C          15.7765   13.6941   45.1678 C.ar    1  UNL1        0.0265
      9 C          14.9798   13.1513   42.5019 C.ar    1  UNL1       -0.0055
     10 C          14.4823   13.2604   44.8869 C.ar    1  UNL1        0.1621
     11 C          14.0798   13.0039   43.5681 C.ar    1  UNL1        0.1660
     12 O          13.6037   13.0911   45.9179 O.3     1  UNL1       -0.5032
     13 O          12.7627   12.6160   43.3667 O.3     1  UNL1       -0.4571
     14 C          12.1045   12.5258   42.0758 C.3     1  UNL1        0.2310
     15 O          11.6822   13.8338   41.6020 O.3     1  UNL1       -0.3313
     16 C          10.8458   11.6350   42.2169 C.3     1  UNL1        0.1454
     17 C          10.7859   14.5582   42.4899 C.3     1  UNL1        0.1140
     18 O          11.2092   10.3252   42.6739 O.3     1  UNL1       -0.3829
     19 C           9.8404   12.2956   43.1949 C.3     1  UNL1        0.1152
     20 C           9.4924   13.7331   42.7389 C.3     1  UNL1        0.1120
     21 C          10.5305   15.9658   41.9006 C.3     1  UNL1        0.0731
     22 O           8.6235   11.5485   43.2341 O.3     1  UNL1       -0.3864
     23 O           8.6660   13.6656   41.5670 O.3     1  UNL1       -0.3865
     24 O          10.7131   15.9871   40.4791 O.3     1  UNL1       -0.3924
     25 H          19.2982   14.3412   41.2826 H       1  UNL1        0.0689
     26 H          16.9335   13.5216   40.6771 H       1  UNL1        0.0627
     27 H          16.0826   13.9072   46.1890 H       1  UNL1        0.0692
     28 H          14.6647   12.9351   41.4852 H       1  UNL1        0.0662
     29 H          13.9748   13.4942   46.7217 H       1  UNL1        0.2923
     30 H          12.8099   12.0979   41.3468 H       1  UNL1        0.1084
     31 H          10.3795   11.5389   41.2326 H       1  UNL1        0.0683
     32 H          11.2892   14.6887   43.4524 H       1  UNL1        0.0647
     33 H          11.9413   10.4035   43.3147 H       1  UNL1        0.2102
     34 H          10.2801   12.3278   44.1962 H       1  UNL1        0.0648
     35 H           8.9187   14.2170   43.5344 H       1  UNL1        0.0647
     36 H          11.2351   16.6688   42.3530 H       1  UNL1        0.0584
     37 H           9.5153   16.2906   42.1449 H       1  UNL1        0.0584
     38 H           8.1768   11.8383   44.0561 H       1  UNL1        0.2100
     39 H           7.7345   13.7202   41.8477 H       1  UNL1        0.2100
     40 H          10.6111   16.9039   40.1641 H       1  UNL1        0.2095
@<TRIPOS>BOND
     1     1     2    2
     2     2     3   ar
     3     2     4   ar
     4     3     5   ar
     5     4     6   ar
     6     5     7   ar
     7     5     8   ar
     8     7     9   ar
     9     8    10   ar
    10     9    11   ar
    11    10    12    1
    12    11    13    1
    13    13    14    1
    14    14    15    1
    15    14    16    1
    16    15    17    1
    17    16    18    1
    18    16    19    1
    19    17    20    1
    20    17    21    1
    21    19    22    1
    22    20    23    1
    23    21    24    1
    24     6     7   ar
    25    10    11   ar
    26    19    20    1
    27     4    25    1
    28     6    26    1
    29     8    27    1
    30     9    28    1
    31    12    29    1
    32    14    30    1
    33    16    31    1
    34    17    32    1
    35    18    33    1
    36    19    34    1
    37    20    35    1
    38    21    36    1
    39    21    37    1
    40    22    38    1
    41    23    39    1
    42    24    40    1
@<TRIPOS>SUBSTRUCTURE
     1 UNL1        1 TEMP              0 ****  ****    0 ROOT


##########                                Name:                  16
##########                DOCK_Rotatable_Bonds:                   8
##########                         Heavy_Atoms:                  24
##########                    Molecular_Weight:             340.287
##########                       Formal_Charge:         0.000100136
##########                     HBond_Acceptors:                   9
##########                        HBond_Donors:                   5
##########                    Descriptor_Score:           27.755445
##########          Footprint_Similarity_Score:            4.855823
##########                 desc_FPS_vdw_energy:          -33.759079
##########                  desc_FPS_es_energy:           -3.075419
##########              desc_FPS_vdw+es_energy:          -36.834499
##########                  desc_FPS_num_hbond:                   1
##########                    desc_FPS_vdw_fps:            3.174240
##########                     desc_FPS_es_fps:            1.681583
##########                     desc_FPS_hb_fps:            1.000000
##########              desc_FPS_vdw_fp_numres:                 219
##########               desc_FPS_es_fp_numres:                 219
##########               desc_FPS_hb_fp_numres:                 219
##########                 Pharmacophore_Score:           20.000000
##########              desc_FMS_num_match_tot:                   0
##########              desc_FMS_max_match_ref:                  10
##########              desc_FMS_max_match_mol:                  17
##########                 desc_FMS_match_rate:            4.000000
##########                desc_FMS_match_resid:            0.000000
##########    desc_FMS_num_hydrophobic_matched:                   0
##########          desc_FMS_num_donor_matched:                   0
##########       desc_FMS_num_acceptor_matched:                   0
##########       desc_FMS_num_aromatic_matched:                   0
##########       desc_FMS_num_positive_matched:                   0
##########       desc_FMS_num_negative_matched:                   0
##########           desc_FMS_num_ring_matched:                   0
########## Hungarian_Matching_Similarity_Score:            3.205434
##########       desc_HMS_num_unmtchd_hvy_atms:                  23
##########           desc_HMS_num_ref_hvy_atms:                  23
##########        desc_HMS_rmsd_mtchd_hvy_atms:            3.205434
##########               Property_Volume_Score:            0.305813
##########               desc_VOS_geometric_vo:            0.573538
##########                desc_VOS_hvy_atom_vo:            0.548803
##########            desc_VOS_pos_chrg_atm_vo:            0.208937
##########            desc_VOS_neg_chrg_atm_vo:            0.182323
##########         desc_VOS_hydrophobic_atm_vo:            0.198268
##########         desc_VOS_hydrophilic_atm_vo:            0.123006
##########           Internal_energy_repulsive:            4.541295

@<TRIPOS>MOLECULE
16
 40 42 1 0 0
SMALL
GASTEIGER


@<TRIPOS>ATOM
      1 O          19.8776   15.1516   44.2850 O.2     1  UNL1       -0.2452
      2 C          18.8369   14.6554   43.9078 C.ar    1  UNL1        0.3372
      3 O          17.7866   14.4950   44.7501 O.2     1  UNL1       -0.4220
      4 C          18.6015   14.1903   42.5311 C.ar    1  UNL1        0.0236
      5 C          16.5941   13.8880   44.4127 C.ar    1  UNL1        0.1427
      6 C          17.3411   13.6442   42.1101 C.ar    1  UNL1       -0.0442
      7 C          16.3305   13.5070   43.0529 C.ar    1  UNL1        0.0213
      8 C          15.5788   13.7382   45.4130 C.ar    1  UNL1        0.0265
      9 C          15.0685   13.0118   42.7208 C.ar    1  UNL1       -0.0055
     10 C          14.3350   13.2358   45.0359 C.ar    1  UNL1        0.1621
     11 C          14.0738   12.8881   43.7024 C.ar    1  UNL1        0.1660
     12 O          13.3657   13.0891   45.9859 O.3     1  UNL1       -0.5032
     13 O          12.7976   12.4349   43.3991 O.3     1  UNL1       -0.4571
     14 C          12.1429   12.5766   42.1112 C.3     1  UNL1        0.2310
     15 O          11.7310   13.9504   41.8726 O.3     1  UNL1       -0.3313
     16 C          10.8777   11.6841   42.0919 C.3     1  UNL1        0.1454
     17 C          10.8369   14.5148   42.8718 C.3     1  UNL1        0.1140
     18 O          11.2308   10.3119   42.3134 O.3     1  UNL1       -0.3829
     19 C           9.8738   12.1707   43.1683 C.3     1  UNL1        0.1152
     20 C           9.5370   13.6683   42.9702 C.3     1  UNL1        0.1120
     21 C          10.5929   16.0056   42.5373 C.3     1  UNL1        0.0731
     22 O           8.6517   11.4371   43.0739 O.3     1  UNL1       -0.3864
     23 O           8.7139   13.8128   41.8029 O.3     1  UNL1       -0.3865
     24 O          11.1621   16.3656   41.2721 O.3     1  UNL1       -0.3924
     25 H          19.4406   14.3087   41.8527 H       1  UNL1        0.0689
     26 H          17.1780   13.3585   41.0734 H       1  UNL1        0.0627
     27 H          15.7750   14.0216   46.4442 H       1  UNL1        0.0692
     28 H          14.8631   12.7251   41.6935 H       1  UNL1        0.0662
     29 H          13.7392   13.3054   46.8576 H       1  UNL1        0.2923
     30 H          12.8477   12.2778   41.3199 H       1  UNL1        0.1084
     31 H          10.4139   11.7650   41.1049 H       1  UNL1        0.0683
     32 H          11.3380   14.4713   43.8432 H       1  UNL1        0.0647
     33 H          11.6485   10.2286   43.1916 H       1  UNL1        0.2102
     34 H          10.3106   12.0241   44.1607 H       1  UNL1        0.0648
     35 H           8.9641   14.0097   43.8369 H       1  UNL1        0.0647
     36 H          11.0550   16.6199   43.3147 H       1  UNL1        0.0584
     37 H           9.5190   16.2119   42.5284 H       1  UNL1        0.0584
     38 H           8.1218   11.7310   43.8433 H       1  UNL1        0.2100
     39 H           7.7909   13.6305   42.0567 H       1  UNL1        0.2100
     40 H          12.0725   16.6825   41.4172 H       1  UNL1        0.2095
@<TRIPOS>BOND
     1     1     2    2
     2     2     3   ar
     3     2     4   ar
     4     3     5   ar
     5     4     6   ar
     6     5     7   ar
     7     5     8   ar
     8     7     9   ar
     9     8    10   ar
    10     9    11   ar
    11    10    12    1
    12    11    13    1
    13    13    14    1
    14    14    15    1
    15    14    16    1
    16    15    17    1
    17    16    18    1
    18    16    19    1
    19    17    20    1
    20    17    21    1
    21    19    22    1
    22    20    23    1
    23    21    24    1
    24     6     7   ar
    25    10    11   ar
    26    19    20    1
    27     4    25    1
    28     6    26    1
    29     8    27    1
    30     9    28    1
    31    12    29    1
    32    14    30    1
    33    16    31    1
    34    17    32    1
    35    18    33    1
    36    19    34    1
    37    20    35    1
    38    21    36    1
    39    21    37    1
    40    22    38    1
    41    23    39    1
    42    24    40    1
@<TRIPOS>SUBSTRUCTURE
     1 UNL1        1 TEMP              0 ****  ****    0 ROOT


##########                                Name:                  16
##########                DOCK_Rotatable_Bonds:                   8
##########                         Heavy_Atoms:                  24
##########                    Molecular_Weight:             340.287
##########                       Formal_Charge:         0.000100136
##########                     HBond_Acceptors:                   9
##########                        HBond_Donors:                   5
##########                    Descriptor_Score:           28.036560
##########          Footprint_Similarity_Score:            5.143219
##########                 desc_FPS_vdw_energy:          -34.315937
##########                  desc_FPS_es_energy:           -2.701245
##########              desc_FPS_vdw+es_energy:          -37.017181
##########                  desc_FPS_num_hbond:                   1
##########                    desc_FPS_vdw_fps:            3.356780
##########                     desc_FPS_es_fps:            1.786438
##########                     desc_FPS_hb_fps:            1.000000
##########              desc_FPS_vdw_fp_numres:                 219
##########               desc_FPS_es_fp_numres:                 219
##########               desc_FPS_hb_fp_numres:                 219
##########                 Pharmacophore_Score:           20.000000
##########              desc_FMS_num_match_tot:                   0
##########              desc_FMS_max_match_ref:                  10
##########              desc_FMS_max_match_mol:                  17
##########                 desc_FMS_match_rate:            4.000000
##########                desc_FMS_match_resid:            0.000000
##########    desc_FMS_num_hydrophobic_matched:                   0
##########          desc_FMS_num_donor_matched:                   0
##########       desc_FMS_num_acceptor_matched:                   0
##########       desc_FMS_num_aromatic_matched:                   0
##########       desc_FMS_num_positive_matched:                   0
##########       desc_FMS_num_negative_matched:                   0
##########           desc_FMS_num_ring_matched:                   0
########## Hungarian_Matching_Similarity_Score:            3.199579
##########       desc_HMS_num_unmtchd_hvy_atms:                  23
##########           desc_HMS_num_ref_hvy_atms:                  23
##########        desc_HMS_rmsd_mtchd_hvy_atms:            3.199579
##########               Property_Volume_Score:            0.306239
##########               desc_VOS_geometric_vo:            0.573892
##########                desc_VOS_hvy_atom_vo:            0.549806
##########            desc_VOS_pos_chrg_atm_vo:            0.206650
##########            desc_VOS_neg_chrg_atm_vo:            0.181941
##########         desc_VOS_hydrophobic_atm_vo:            0.202768
##########         desc_VOS_hydrophilic_atm_vo:            0.122375
##########           Internal_energy_repulsive:            4.547218

@<TRIPOS>MOLECULE
16
 40 42 1 0 0
SMALL
GASTEIGER


@<TRIPOS>ATOM
      1 O          19.8944   15.1787   44.1284 O.2     1  UNL1       -0.2452
      2 C          18.8483   14.6886   43.7583 C.ar    1  UNL1        0.3372
      3 O          17.8148   14.5026   44.6160 O.2     1  UNL1       -0.4220
      4 C          18.5880   14.2586   42.3747 C.ar    1  UNL1        0.0236
      5 C          16.6181   13.9002   44.2856 C.ar    1  UNL1        0.1427
      6 C          17.3216   13.7190   41.9637 C.ar    1  UNL1       -0.0442
      7 C          16.3297   13.5537   42.9216 C.ar    1  UNL1        0.0213
      8 C          15.6226   13.7206   45.3009 C.ar    1  UNL1        0.0265
      9 C          15.0632   13.0626   42.6008 C.ar    1  UNL1       -0.0055
     10 C          14.3734   13.2236   44.9345 C.ar    1  UNL1        0.1621
     11 C          14.0878   12.9097   43.5977 C.ar    1  UNL1        0.1660
     12 O          13.4229   13.0487   45.8986 O.3     1  UNL1       -0.5032
     13 O          12.8075   12.4599   43.3070 O.3     1  UNL1       -0.4571
     14 C          12.1434   12.5964   42.0233 C.3     1  UNL1        0.2310
     15 O          11.7449   13.9724   41.7748 O.3     1  UNL1       -0.3313
     16 C          10.8682   11.7181   42.0235 C.3     1  UNL1        0.1454
     17 C          10.8657   14.5565   42.7759 C.3     1  UNL1        0.1140
     18 O          11.2078   10.3442   42.2555 O.3     1  UNL1       -0.3829
     19 C           9.8790   12.2264   43.1036 C.3     1  UNL1        0.1152
     20 C           9.5573   13.7257   42.8936 C.3     1  UNL1        0.1120
     21 C          10.6355   16.0466   42.4288 C.3     1  UNL1        0.0731
     22 O           8.6481   11.5058   43.0267 O.3     1  UNL1       -0.3864
     23 O           8.7259   13.8681   41.7320 O.3     1  UNL1       -0.3865
     24 O          11.0187   16.3426   41.0798 O.3     1  UNL1       -0.3924
     25 H          19.4137   14.3977   41.6837 H       1  UNL1        0.0689
     26 H          17.1396   13.4597   40.9231 H       1  UNL1        0.0627
     27 H          15.8376   13.9778   46.3351 H       1  UNL1        0.0692
     28 H          14.8390   12.8020   41.5705 H       1  UNL1        0.0662
     29 H          13.6809   13.5461   46.6938 H       1  UNL1        0.2923
     30 H          12.8380   12.2820   41.2291 H       1  UNL1        0.1084
     31 H          10.3969   11.7946   41.0398 H       1  UNL1        0.0683
     32 H          11.3746   14.5169   43.7435 H       1  UNL1        0.0647
     33 H          11.7481   10.2825   43.0660 H       1  UNL1        0.2102
     34 H          10.3226   12.0846   44.0937 H       1  UNL1        0.0648
     35 H           8.9958   14.0820   43.7618 H       1  UNL1        0.0647
     36 H          11.2364   16.6612   43.1046 H       1  UNL1        0.0584
     37 H           9.5825   16.3024   42.5756 H       1  UNL1        0.0584
     38 H           8.1196   11.8290   43.7853 H       1  UNL1        0.2100
     39 H           7.9082   13.3588   41.8785 H       1  UNL1        0.2100
     40 H          10.3790   15.9254   40.4740 H       1  UNL1        0.2095
@<TRIPOS>BOND
     1     1     2    2
     2     2     3   ar
     3     2     4   ar
     4     3     5   ar
     5     4     6   ar
     6     5     7   ar
     7     5     8   ar
     8     7     9   ar
     9     8    10   ar
    10     9    11   ar
    11    10    12    1
    12    11    13    1
    13    13    14    1
    14    14    15    1
    15    14    16    1
    16    15    17    1
    17    16    18    1
    18    16    19    1
    19    17    20    1
    20    17    21    1
    21    19    22    1
    22    20    23    1
    23    21    24    1
    24     6     7   ar
    25    10    11   ar
    26    19    20    1
    27     4    25    1
    28     6    26    1
    29     8    27    1
    30     9    28    1
    31    12    29    1
    32    14    30    1
    33    16    31    1
    34    17    32    1
    35    18    33    1
    36    19    34    1
    37    20    35    1
    38    21    36    1
    39    21    37    1
    40    22    38    1
    41    23    39    1
    42    24    40    1
@<TRIPOS>SUBSTRUCTURE
     1 UNL1        1 TEMP              0 ****  ****    0 ROOT


##########                                Name:                  17
##########                DOCK_Rotatable_Bonds:                   6
##########                         Heavy_Atoms:                  14
##########                    Molecular_Weight:             194.187
##########                       Formal_Charge:         0.000200033
##########                     HBond_Acceptors:                   4
##########                        HBond_Donors:                   2
##########                    Descriptor_Score:           39.842300
##########          Footprint_Similarity_Score:           11.830746
##########                 desc_FPS_vdw_energy:          -21.523598
##########                  desc_FPS_es_energy:           -2.580647
##########              desc_FPS_vdw+es_energy:          -24.104244
##########                  desc_FPS_num_hbond:                   2
##########                    desc_FPS_vdw_fps:            9.187998
##########                     desc_FPS_es_fps:            2.642747
##########                     desc_FPS_hb_fps:            1.414214
##########              desc_FPS_vdw_fp_numres:                 219
##########               desc_FPS_es_fp_numres:                 219
##########               desc_FPS_hb_fp_numres:                 219
##########                 Pharmacophore_Score:           20.000000
##########              desc_FMS_num_match_tot:                   0
##########              desc_FMS_max_match_ref:                  10
##########              desc_FMS_max_match_mol:                   9
##########                 desc_FMS_match_rate:            4.000000
##########                desc_FMS_match_resid:            0.000000
##########    desc_FMS_num_hydrophobic_matched:                   0
##########          desc_FMS_num_donor_matched:                   0
##########       desc_FMS_num_acceptor_matched:                   0
##########       desc_FMS_num_aromatic_matched:                   0
##########       desc_FMS_num_positive_matched:                   0
##########       desc_FMS_num_negative_matched:                   0
##########           desc_FMS_num_ring_matched:                   0
########## Hungarian_Matching_Similarity_Score:            8.011553
##########       desc_HMS_num_unmtchd_hvy_atms:                  13
##########           desc_HMS_num_ref_hvy_atms:                  23
##########        desc_HMS_rmsd_mtchd_hvy_atms:           10.185466
##########               Property_Volume_Score:            0.000000
##########               desc_VOS_geometric_vo:            0.000000
##########                desc_VOS_hvy_atom_vo:            0.000000
##########            desc_VOS_pos_chrg_atm_vo:            0.000000
##########            desc_VOS_neg_chrg_atm_vo:            0.000000
##########         desc_VOS_hydrophobic_atm_vo:            0.000000
##########         desc_VOS_hydrophilic_atm_vo:            0.000000
##########           Internal_energy_repulsive:            4.177821

@<TRIPOS>MOLECULE
17
 24 24 1 0 0
SMALL
GASTEIGER


@<TRIPOS>ATOM
      1 O          23.8633   14.1839   42.3636 O.2     1  UNL1       -0.2458
      2 C          23.1904   13.4060   43.0065 C.2     1  UNL1        0.3296
      3 O          22.7247   13.7258   44.1883 O.3     1  UNL1       -0.4775
      4 C          22.8950   12.0394   42.5059 C.2     1  UNL1        0.0229
      5 C          23.1031   11.5118   41.2865 C.2     1  UNL1       -0.0477
      6 C          22.7898   10.1358   40.8331 C.ar    1  UNL1       -0.0211
      7 C          22.9957    9.7618   39.5008 C.ar    1  UNL1       -0.0092
      8 C          22.3088    9.1892   41.7415 C.ar    1  UNL1       -0.0509
      9 C          22.7308    8.4519   39.0806 C.ar    1  UNL1        0.1618
     10 C          22.0489    7.8829   41.3281 C.ar    1  UNL1       -0.0160
     11 O          22.9214    8.0276   37.7734 O.3     1  UNL1       -0.4914
     12 C          22.2647    7.5138   40.0007 C.ar    1  UNL1        0.1585
     13 C          22.9682    8.9289   36.6431 C.3     1  UNL1        0.0790
     14 O          22.0289    6.2332   39.5918 O.3     1  UNL1       -0.5033
     15 H          22.3672   12.9379   44.6245 H       1  UNL1        0.2954
     16 H          22.4429   11.3762   43.2437 H       1  UNL1        0.0689
     17 H          23.5515   12.1432   40.5212 H       1  UNL1        0.0626
     18 H          23.3701   10.5001   38.7971 H       1  UNL1        0.0661
     19 H          22.1437    9.4638   42.7804 H       1  UNL1        0.0625
     20 H          21.6846    7.1488   42.0433 H       1  UNL1        0.0655
     21 H          23.1171    8.3432   35.7319 H       1  UNL1        0.0660
     22 H          23.8012    9.6266   36.7657 H       1  UNL1        0.0660
     23 H          22.0241    9.4767   36.5726 H       1  UNL1        0.0660
     24 H          21.8174    5.6989   40.3888 H       1  UNL1        0.2923
@<TRIPOS>BOND
     1     1     2    2
     2     2     3    1
     3     2     4    1
     4     4     5    2
     5     5     6    1
     6     6     7   ar
     7     6     8   ar
     8     7     9   ar
     9     8    10   ar
    10     9    11    1
    11     9    12   ar
    12    11    13    1
    13    12    14    1
    14    10    12   ar
    15     3    15    1
    16     4    16    1
    17     5    17    1
    18     7    18    1
    19     8    19    1
    20    10    20    1
    21    13    21    1
    22    13    22    1
    23    13    23    1
    24    14    24    1
@<TRIPOS>SUBSTRUCTURE
     1 UNL1        1 TEMP              0 ****  ****    0 ROOT


##########                                Name:                  17
##########                DOCK_Rotatable_Bonds:                   6
##########                         Heavy_Atoms:                  14
##########                    Molecular_Weight:             194.187
##########                       Formal_Charge:         0.000200033
##########                     HBond_Acceptors:                   4
##########                        HBond_Donors:                   2
##########                    Descriptor_Score:           41.352303
##########          Footprint_Similarity_Score:           12.234636
##########                 desc_FPS_vdw_energy:          -22.394934
##########                  desc_FPS_es_energy:           -3.318003
##########              desc_FPS_vdw+es_energy:          -25.712936
##########                  desc_FPS_num_hbond:                   2
##########                    desc_FPS_vdw_fps:            9.260557
##########                     desc_FPS_es_fps:            2.974079
##########                     desc_FPS_hb_fps:            1.414214
##########              desc_FPS_vdw_fp_numres:                 219
##########               desc_FPS_es_fp_numres:                 219
##########               desc_FPS_hb_fp_numres:                 219
##########                 Pharmacophore_Score:           20.000000
##########              desc_FMS_num_match_tot:                   0
##########              desc_FMS_max_match_ref:                  10
##########              desc_FMS_max_match_mol:                   9
##########                 desc_FMS_match_rate:            4.000000
##########                desc_FMS_match_resid:            0.000000
##########    desc_FMS_num_hydrophobic_matched:                   0
##########          desc_FMS_num_donor_matched:                   0
##########       desc_FMS_num_acceptor_matched:                   0
##########       desc_FMS_num_aromatic_matched:                   0
##########       desc_FMS_num_positive_matched:                   0
##########       desc_FMS_num_negative_matched:                   0
##########           desc_FMS_num_ring_matched:                   0
########## Hungarian_Matching_Similarity_Score:            9.117667
##########       desc_HMS_num_unmtchd_hvy_atms:                  13
##########           desc_HMS_num_ref_hvy_atms:                  23
##########        desc_HMS_rmsd_mtchd_hvy_atms:           11.291581
##########               Property_Volume_Score:            0.000000
##########               desc_VOS_geometric_vo:            0.000000
##########                desc_VOS_hvy_atom_vo:            0.000000
##########            desc_VOS_pos_chrg_atm_vo:            0.000000
##########            desc_VOS_neg_chrg_atm_vo:            0.000000
##########         desc_VOS_hydrophobic_atm_vo:            0.000000
##########         desc_VOS_hydrophilic_atm_vo:            0.000000
##########           Internal_energy_repulsive:            4.041824

@<TRIPOS>MOLECULE
17
 24 24 1 0 0
SMALL
GASTEIGER


@<TRIPOS>ATOM
      1 O          26.1221    8.2708   37.5519 O.2     1  UNL1       -0.2458
      2 C          25.7155    7.6137   36.6171 C.2     1  UNL1        0.3296
      3 O          26.5018    7.2897   35.6209 O.3     1  UNL1       -0.4775
      4 C          24.2979    7.1786   36.5340 C.2     1  UNL1        0.0229
      5 C          23.2275    7.6160   37.2208 C.2     1  UNL1       -0.0477
      6 C          23.1926    8.6709   38.2615 C.ar    1  UNL1       -0.0211
      7 C          22.7294    8.3837   39.5500 C.ar    1  UNL1       -0.0092
      8 C          23.6480    9.9597   37.9711 C.ar    1  UNL1       -0.0509
      9 C          22.7279    9.3726   40.5423 C.ar    1  UNL1        0.1618
     10 C          23.6528   10.9453   38.9577 C.ar    1  UNL1       -0.0160
     11 O          22.2837    9.1401   41.8360 O.3     1  UNL1       -0.4914
     12 C          23.1983   10.6503   40.2427 C.ar    1  UNL1        0.1585
     13 C          21.7076    7.8850   42.2661 C.3     1  UNL1        0.0790
     14 O          23.2154   11.6046   41.2184 O.3     1  UNL1       -0.5033
     15 H          25.9994    6.8020   34.9512 H       1  UNL1        0.2954
     16 H          24.1101    6.3882   35.8070 H       1  UNL1        0.0689
     17 H          22.2598    7.1635   37.0106 H       1  UNL1        0.0626
     18 H          22.3763    7.3805   39.7726 H       1  UNL1        0.0661
     19 H          24.0113   10.1989   36.9748 H       1  UNL1        0.0625
     20 H          24.0186   11.9434   38.7270 H       1  UNL1        0.0655
     21 H          21.4323    7.9673   43.3211 H       1  UNL1        0.0660
     22 H          22.4423    7.0845   42.1445 H       1  UNL1        0.0660
     23 H          20.8138    7.6705   41.6732 H       1  UNL1        0.0660
     24 H          24.0661   11.5214   41.7031 H       1  UNL1        0.2923
@<TRIPOS>BOND
     1     1     2    2
     2     2     3    1
     3     2     4    1
     4     4     5    2
     5     5     6    1
     6     6     7   ar
     7     6     8   ar
     8     7     9   ar
     9     8    10   ar
    10     9    11    1
    11     9    12   ar
    12    11    13    1
    13    12    14    1
    14    10    12   ar
    15     3    15    1
    16     4    16    1
    17     5    17    1
    18     7    18    1
    19     8    19    1
    20    10    20    1
    21    13    21    1
    22    13    22    1
    23    13    23    1
    24    14    24    1
@<TRIPOS>SUBSTRUCTURE
     1 UNL1        1 TEMP              0 ****  ****    0 ROOT


##########                                Name:                  17
##########                DOCK_Rotatable_Bonds:                   6
##########                         Heavy_Atoms:                  14
##########                    Molecular_Weight:             194.187
##########                       Formal_Charge:         0.000200033
##########                     HBond_Acceptors:                   4
##########                        HBond_Donors:                   2
##########                    Descriptor_Score:           40.065804
##########          Footprint_Similarity_Score:           11.813366
##########                 desc_FPS_vdw_energy:          -21.848186
##########                  desc_FPS_es_energy:           -1.906669
##########              desc_FPS_vdw+es_energy:          -23.754856
##########                  desc_FPS_num_hbond:                   1
##########                    desc_FPS_vdw_fps:            9.558495
##########                     desc_FPS_es_fps:            2.254871
##########                     desc_FPS_hb_fps:            1.000000
##########              desc_FPS_vdw_fp_numres:                 219
##########               desc_FPS_es_fp_numres:                 219
##########               desc_FPS_hb_fp_numres:                 219
##########                 Pharmacophore_Score:           20.000000
##########              desc_FMS_num_match_tot:                   0
##########              desc_FMS_max_match_ref:                  10
##########              desc_FMS_max_match_mol:                   9
##########                 desc_FMS_match_rate:            4.000000
##########                desc_FMS_match_resid:            0.000000
##########    desc_FMS_num_hydrophobic_matched:                   0
##########          desc_FMS_num_donor_matched:                   0
##########       desc_FMS_num_acceptor_matched:                   0
##########       desc_FMS_num_aromatic_matched:                   0
##########       desc_FMS_num_positive_matched:                   0
##########       desc_FMS_num_negative_matched:                   0
##########           desc_FMS_num_ring_matched:                   0
########## Hungarian_Matching_Similarity_Score:            8.252436
##########       desc_HMS_num_unmtchd_hvy_atms:                  13
##########           desc_HMS_num_ref_hvy_atms:                  23
##########        desc_HMS_rmsd_mtchd_hvy_atms:           10.426349
##########               Property_Volume_Score:            0.000000
##########               desc_VOS_geometric_vo:            0.000000
##########                desc_VOS_hvy_atom_vo:            0.000000
##########            desc_VOS_pos_chrg_atm_vo:            0.000000
##########            desc_VOS_neg_chrg_atm_vo:            0.000000
##########         desc_VOS_hydrophobic_atm_vo:            0.000000
##########         desc_VOS_hydrophilic_atm_vo:            0.000000
##########           Internal_energy_repulsive:            4.484494

@<TRIPOS>MOLECULE
17
 24 24 1 0 0
SMALL
GASTEIGER


@<TRIPOS>ATOM
      1 O          25.1473   15.2312   39.7381 O.2     1  UNL1       -0.2458
      2 C          24.8182   14.2091   39.1740 C.2     1  UNL1        0.3296
      3 O          24.9467   14.0769   37.8772 O.3     1  UNL1       -0.4775
      4 C          24.2159   13.0731   39.9172 C.2     1  UNL1        0.0229
      5 C          23.7706   11.8904   39.4572 C.2     1  UNL1       -0.0477
      6 C          23.1747   10.7833   40.2423 C.ar    1  UNL1       -0.0211
      7 C          22.8659    9.5635   39.6307 C.ar    1  UNL1       -0.0092
      8 C          22.9393   10.9399   41.6108 C.ar    1  UNL1       -0.0509
      9 C          22.3337    8.5064   40.3803 C.ar    1  UNL1        0.1618
     10 C          22.4143    9.8882   42.3613 C.ar    1  UNL1       -0.0160
     11 O          22.0139    7.2759   39.8248 O.3     1  UNL1       -0.4914
     12 C          22.1171    8.6717   41.7476 C.ar    1  UNL1        0.1585
     13 C          22.3981    6.8828   38.4869 C.3     1  UNL1        0.0790
     14 O          21.6189    7.6320   42.4782 O.3     1  UNL1       -0.5033
     15 H          24.5848   13.2231   37.5967 H       1  UNL1        0.2954
     16 H          24.1261   13.2334   40.9917 H       1  UNL1        0.0689
     17 H          23.8414   11.6928   38.3889 H       1  UNL1        0.0626
     18 H          23.0506    9.4450   38.5666 H       1  UNL1        0.0661
     19 H          23.1739   11.8814   42.1011 H       1  UNL1        0.0625
     20 H          22.2436   10.0141   43.4282 H       1  UNL1        0.0655
     21 H          22.0156    5.8772   38.2921 H       1  UNL1        0.0660
     22 H          23.4886    6.8778   38.4060 H       1  UNL1        0.0660
     23 H          21.9690    7.5814   37.7629 H       1  UNL1        0.0660
     24 H          21.5284    6.8602   41.8769 H       1  UNL1        0.2923
@<TRIPOS>BOND
     1     1     2    2
     2     2     3    1
     3     2     4    1
     4     4     5    2
     5     5     6    1
     6     6     7   ar
     7     6     8   ar
     8     7     9   ar
     9     8    10   ar
    10     9    11    1
    11     9    12   ar
    12    11    13    1
    13    12    14    1
    14    10    12   ar
    15     3    15    1
    16     4    16    1
    17     5    17    1
    18     7    18    1
    19     8    19    1
    20    10    20    1
    21    13    21    1
    22    13    22    1
    23    13    23    1
    24    14    24    1
@<TRIPOS>SUBSTRUCTURE
     1 UNL1        1 TEMP              0 ****  ****    0 ROOT


##########                                Name:                  18
##########                DOCK_Rotatable_Bonds:                  21
##########                         Heavy_Atoms:                  45
##########                    Molecular_Weight:             636.476
##########                       Formal_Charge:         0.000299454
##########                     HBond_Acceptors:                  18
##########                        HBond_Donors:                  11
##########                    Descriptor_Score:           46.058121
##########          Footprint_Similarity_Score:           17.007511
##########                 desc_FPS_vdw_energy:          -52.436024
##########                  desc_FPS_es_energy:           -7.524681
##########              desc_FPS_vdw+es_energy:          -59.960705
##########                  desc_FPS_num_hbond:                   3
##########                    desc_FPS_vdw_fps:           12.411447
##########                     desc_FPS_es_fps:            4.596064
##########                     desc_FPS_hb_fps:            2.236068
##########              desc_FPS_vdw_fp_numres:                 219
##########               desc_FPS_es_fp_numres:                 219
##########               desc_FPS_hb_fp_numres:                 219
##########                 Pharmacophore_Score:           20.000000
##########              desc_FMS_num_match_tot:                   0
##########              desc_FMS_max_match_ref:                  10
##########              desc_FMS_max_match_mol:                  33
##########                 desc_FMS_match_rate:            4.000000
##########                desc_FMS_match_resid:            0.000000
##########    desc_FMS_num_hydrophobic_matched:                   0
##########          desc_FMS_num_donor_matched:                   0
##########       desc_FMS_num_acceptor_matched:                   0
##########       desc_FMS_num_aromatic_matched:                   0
##########       desc_FMS_num_positive_matched:                   0
##########       desc_FMS_num_negative_matched:                   0
##########           desc_FMS_num_ring_matched:                   0
########## Hungarian_Matching_Similarity_Score:            9.179518
##########       desc_HMS_num_unmtchd_hvy_atms:                  24
##########           desc_HMS_num_ref_hvy_atms:                  23
##########        desc_HMS_rmsd_mtchd_hvy_atms:            8.962126
##########               Property_Volume_Score:            0.128907
##########               desc_VOS_geometric_vo:            0.211345
##########                desc_VOS_hvy_atom_vo:            0.190062
##########            desc_VOS_pos_chrg_atm_vo:            0.059634
##########            desc_VOS_neg_chrg_atm_vo:            0.159138
##########         desc_VOS_hydrophobic_atm_vo:            0.151040
##########         desc_VOS_hydrophilic_atm_vo:            0.002221
##########           Internal_energy_repulsive:           12.651819

@<TRIPOS>MOLECULE
18
 69 72 1 0 0
SMALL
GASTEIGER


@<TRIPOS>ATOM
      1 O          23.2614   15.1082   36.9883 O.2     1  UNL1       -0.2449
      2 C          22.1401   14.9094   36.5604 C.2     1  UNL1        0.3417
      3 O          21.0266   15.1280   37.3011 O.3     1  UNL1       -0.4287
      4 C          21.9128   14.3598   35.1805 C.ar    1  UNL1        0.0662
      5 C          21.0856   16.0837   38.3993 C.3     1  UNL1        0.2352
      6 C          22.3687   13.0730   34.8716 C.ar    1  UNL1       -0.0023
      7 C          21.2231   15.0914   34.2044 C.ar    1  UNL1       -0.0023
      8 O          22.0329   15.6446   39.4163 O.3     1  UNL1       -0.3300
      9 C          19.6915   16.2249   39.0521 C.3     1  UNL1        0.1565
     10 C          22.1046   12.5120   33.6244 C.ar    1  UNL1        0.1628
     11 C          20.9658   14.5294   32.9517 C.ar    1  UNL1        0.1628
     12 C          21.7235   14.3930   40.1011 C.3     1  UNL1        0.1260
     13 O          18.7255   16.6660   38.0892 O.3     1  UNL1       -0.3818
     14 C          19.3149   14.8704   39.7057 C.3     1  UNL1        0.1631
     15 O          22.5111   11.2439   33.3249 O.3     1  UNL1       -0.5032
     16 C          21.3957   13.2348   32.6721 C.ar    1  UNL1        0.2006
     17 O          20.2706   15.2209   32.0044 O.3     1  UNL1       -0.5032
     18 C          20.3464   14.5004   40.7822 C.3     1  UNL1        0.1241
     19 C          22.8165   14.1138   41.1459 C.3     1  UNL1        0.1216
     20 O          18.0100   14.9192   40.3295 O.3     1  UNL1       -0.4523
     21 O          21.1097   12.6349   31.4865 O.3     1  UNL1       -0.5009
     22 O          20.3828   15.4871   41.8230 O.3     1  UNL1       -0.3853
     23 O          23.2482   12.7465   40.9981 O.3     1  UNL1       -0.4584
     24 C          17.3077   13.7769   40.4482 C.2     1  UNL1        0.3398
     25 C          22.8765   11.8260   41.9116 C.2     1  UNL1        0.3395
     26 O          17.2154   12.9577   39.5510 O.2     1  UNL1       -0.2449
     27 C          16.5697   13.6252   41.7345 C.ar    1  UNL1        0.0661
     28 O          22.8528   12.0427   43.1087 O.2     1  UNL1       -0.2450
     29 C          22.6166   10.4752   41.3336 C.ar    1  UNL1        0.0661
     30 C          15.4794   12.7556   41.8692 C.ar    1  UNL1       -0.0023
     31 C          17.0234   14.3427   42.8372 C.ar    1  UNL1       -0.0023
     32 C          22.9339   10.1988   39.9994 C.ar    1  UNL1       -0.0023
     33 C          22.0736    9.4730   42.1384 C.ar    1  UNL1       -0.0023
     34 C          14.8729   12.5919   43.1151 C.ar    1  UNL1        0.1628
     35 C          16.4419   14.1605   44.0819 C.ar    1  UNL1        0.1628
     36 C          22.7055    8.9314   39.4752 C.ar    1  UNL1        0.1628
     37 C          21.8843    8.1931   41.6286 C.ar    1  UNL1        0.1628
     38 O          13.8037   11.7460   43.2806 O.3     1  UNL1       -0.5032
     39 C          15.3715   13.2790   44.2209 C.ar    1  UNL1        0.2006
     40 O          16.9760   14.8211   45.1410 O.3     1  UNL1       -0.5032
     41 O          22.9811    8.6638   38.1614 O.3     1  UNL1       -0.5032
     42 C          22.1942    7.9274   40.2957 C.ar    1  UNL1        0.2006
     43 O          21.4171    7.2105   42.4464 O.3     1  UNL1       -0.5032
     44 O          14.8099   13.0514   45.4348 O.3     1  UNL1       -0.5009
     45 O          22.0127    6.6946   39.7631 O.3     1  UNL1       -0.5009
     46 H          21.4184   17.0587   38.0084 H       1  UNL1        0.1086
     47 H          22.9137   12.4934   35.6129 H       1  UNL1        0.0663
     48 H          20.8708   16.0967   34.4208 H       1  UNL1        0.0663
     49 H          19.7533   16.9930   39.8273 H       1  UNL1        0.0694
     50 H          21.7002   13.5827   39.3660 H       1  UNL1        0.0659
     51 H          18.8093   16.1396   37.2768 H       1  UNL1        0.2102
     52 H          19.3361   14.0783   38.9512 H       1  UNL1        0.0790
     53 H          22.8222   10.8030   34.1287 H       1  UNL1        0.2923
     54 H          20.2879   14.7485   31.1666 H       1  UNL1        0.2923
     55 H          20.0756   13.5332   41.2155 H       1  UNL1        0.0658
     56 H          22.4440   14.2856   42.1608 H       1  UNL1        0.0725
     57 H          23.6737   14.7686   40.9711 H       1  UNL1        0.0725
     58 H          21.5547   11.7689   31.5272 H       1  UNL1        0.2924
     59 H          19.7188   15.2334   42.4912 H       1  UNL1        0.2101
     60 H          15.1068   12.1999   41.0131 H       1  UNL1        0.0663
     61 H          17.8671   15.0234   42.7393 H       1  UNL1        0.0663
     62 H          23.3420   10.9745   39.3558 H       1  UNL1        0.0663
     63 H          21.8328    9.6782   43.1789 H       1  UNL1        0.0663
     64 H          13.4750   11.7540   44.2008 H       1  UNL1        0.2923
     65 H          16.5000   14.5220   45.9320 H       1  UNL1        0.2923
     66 H          22.6299    7.7887   37.9131 H       1  UNL1        0.2923
     67 H          21.4477    6.3709   41.9667 H       1  UNL1        0.2923
     68 H          14.2165   12.2999   45.2785 H       1  UNL1        0.2924
     69 H          21.6933    6.1637   40.5111 H       1  UNL1        0.2924
@<TRIPOS>BOND
     1     1     2    2
     2     2     3    1
     3     2     4    1
     4     3     5    1
     5     4     6   ar
     6     4     7   ar
     7     5     8    1
     8     5     9    1
     9     6    10   ar
    10     7    11   ar
    11     8    12    1
    12     9    13    1
    13     9    14    1
    14    10    15    1
    15    10    16   ar
    16    11    17    1
    17    12    18    1
    18    12    19    1
    19    14    20    1
    20    16    21    1
    21    18    22    1
    22    19    23    1
    23    20    24    1
    24    23    25    1
    25    24    26    2
    26    24    27    1
    27    25    28    2
    28    25    29    1
    29    27    30   ar
    30    27    31   ar
    31    29    32   ar
    32    29    33   ar
    33    30    34   ar
    34    31    35   ar
    35    32    36   ar
    36    33    37   ar
    37    34    38    1
    38    34    39   ar
    39    35    40    1
    40    36    41    1
    41    36    42   ar
    42    37    43    1
    43    39    44    1
    44    42    45    1
    45    11    16   ar
    46    14    18    1
    47    35    39   ar
    48    37    42   ar
    49     5    46    1
    50     6    47    1
    51     7    48    1
    52     9    49    1
    53    12    50    1
    54    13    51    1
    55    14    52    1
    56    15    53    1
    57    17    54    1
    58    18    55    1
    59    19    56    1
    60    19    57    1
    61    21    58    1
    62    22    59    1
    63    30    60    1
    64    31    61    1
    65    32    62    1
    66    33    63    1
    67    38    64    1
    68    40    65    1
    69    41    66    1
    70    43    67    1
    71    44    68    1
    72    45    69    1
@<TRIPOS>SUBSTRUCTURE
     1 UNL1        1 TEMP              0 ****  ****    0 ROOT


##########                                Name:                  18
##########                DOCK_Rotatable_Bonds:                  21
##########                         Heavy_Atoms:                  45
##########                    Molecular_Weight:             636.476
##########                       Formal_Charge:         0.000299454
##########                     HBond_Acceptors:                  18
##########                        HBond_Donors:                  11
##########                    Descriptor_Score:           47.011139
##########          Footprint_Similarity_Score:           17.810604
##########                 desc_FPS_vdw_energy:          -52.419434
##########                  desc_FPS_es_energy:           -7.416611
##########              desc_FPS_vdw+es_energy:          -59.836044
##########                  desc_FPS_num_hbond:                   3
##########                    desc_FPS_vdw_fps:           13.047076
##########                     desc_FPS_es_fps:            4.763528
##########                     desc_FPS_hb_fps:            2.236068
##########              desc_FPS_vdw_fp_numres:                 219
##########               desc_FPS_es_fp_numres:                 219
##########               desc_FPS_hb_fp_numres:                 219
##########                 Pharmacophore_Score:           20.000000
##########              desc_FMS_num_match_tot:                   0
##########              desc_FMS_max_match_ref:                  10
##########              desc_FMS_max_match_mol:                  33
##########                 desc_FMS_match_rate:            4.000000
##########                desc_FMS_match_resid:            0.000000
##########    desc_FMS_num_hydrophobic_matched:                   0
##########          desc_FMS_num_donor_matched:                   0
##########       desc_FMS_num_acceptor_matched:                   0
##########       desc_FMS_num_aromatic_matched:                   0
##########       desc_FMS_num_positive_matched:                   0
##########       desc_FMS_num_negative_matched:                   0
##########           desc_FMS_num_ring_matched:                   0
########## Hungarian_Matching_Similarity_Score:            9.324045
##########       desc_HMS_num_unmtchd_hvy_atms:                  24
##########           desc_HMS_num_ref_hvy_atms:                  23
##########        desc_HMS_rmsd_mtchd_hvy_atms:            9.106654
##########               Property_Volume_Score:            0.123512
##########               desc_VOS_geometric_vo:            0.201953
##########                desc_VOS_hvy_atom_vo:            0.182440
##########            desc_VOS_pos_chrg_atm_vo:            0.055420
##########            desc_VOS_neg_chrg_atm_vo:            0.154995
##########         desc_VOS_hydrophobic_atm_vo:            0.145789
##########         desc_VOS_hydrophilic_atm_vo:            0.000477
##########           Internal_energy_repulsive:           12.351948

@<TRIPOS>MOLECULE
18
 69 72 1 0 0
SMALL
GASTEIGER


@<TRIPOS>ATOM
      1 O          23.4315   15.1543   36.6663 O.2     1  UNL1       -0.2449
      2 C          22.2984   14.8881   36.3128 C.2     1  UNL1        0.3417
      3 O          21.2188   15.0945   37.1055 O.3     1  UNL1       -0.4287
      4 C          22.0201   14.2642   34.9744 C.ar    1  UNL1        0.0662
      5 C          21.3104   16.0710   38.1828 C.3     1  UNL1        0.2352
      6 C          22.4950   12.9751   34.7071 C.ar    1  UNL1       -0.0023
      7 C          21.2650   14.9287   33.9986 C.ar    1  UNL1       -0.0023
      8 O          22.2502   15.6268   39.2045 O.3     1  UNL1       -0.3300
      9 C          19.9241   16.2651   38.8389 C.3     1  UNL1        0.1565
     10 C          22.1867   12.3456   33.5034 C.ar    1  UNL1        0.1628
     11 C          20.9632   14.2982   32.7892 C.ar    1  UNL1        0.1628
     12 C          21.9093   14.3991   39.9172 C.3     1  UNL1        0.1260
     13 O          18.9660   16.7129   37.8714 O.3     1  UNL1       -0.3818
     14 C          19.5131   14.9359   39.5228 C.3     1  UNL1        0.1631
     15 O          22.6123   11.0744   33.2470 O.3     1  UNL1       -0.5032
     16 C          21.4139   13.0020   32.5528 C.ar    1  UNL1        0.2006
     17 O          20.2052   14.9239   31.8444 O.3     1  UNL1       -0.5032
     18 C          20.5393   14.5597   40.6021 C.3     1  UNL1        0.1241
     19 C          22.9994   14.1113   40.9625 C.3     1  UNL1        0.1216
     20 O          18.2133   15.0346   40.1514 O.3     1  UNL1       -0.4523
     21 O          21.0876   12.3363   31.4136 O.3     1  UNL1       -0.5009
     22 O          20.6088   15.5666   41.6216 O.3     1  UNL1       -0.3853
     23 O          23.3615   12.7191   40.8705 O.3     1  UNL1       -0.4584
     24 C          17.4571   13.9251   40.2490 C.2     1  UNL1        0.3398
     25 C          22.9232   11.8515   41.8060 C.2     1  UNL1        0.3395
     26 O          17.2783   13.1593   39.3184 O.2     1  UNL1       -0.2449
     27 C          16.7741   13.7452   41.5617 C.ar    1  UNL1        0.0661
     28 O          22.8517   12.1235   42.9899 O.2     1  UNL1       -0.2450
     29 C          22.6519   10.4827   41.2776 C.ar    1  UNL1        0.0661
     30 C          15.6716   12.8945   41.7169 C.ar    1  UNL1       -0.0023
     31 C          17.2925   14.4151   42.6658 C.ar    1  UNL1       -0.0023
     32 C          23.0479   10.1280   39.9836 C.ar    1  UNL1       -0.0023
     33 C          22.0179    9.5423   42.0904 C.ar    1  UNL1       -0.0023
     34 C          15.1177   12.7012   42.9829 C.ar    1  UNL1        0.1628
     35 C          16.7632   14.2028   43.9290 C.ar    1  UNL1        0.1628
     36 C          22.8075    8.8442   39.5069 C.ar    1  UNL1        0.1628
     37 C          21.8150    8.2454   41.6313 C.ar    1  UNL1        0.1628
     38 O          14.0383   11.8728   43.1687 O.3     1  UNL1       -0.5032
     39 C          15.6806   13.3397   44.0871 C.ar    1  UNL1        0.2006
     40 O          17.3588   14.8155   44.9840 O.3     1  UNL1       -0.5032
     41 O          23.1609    8.5005   38.2299 O.3     1  UNL1       -0.5032
     42 C          22.2040    7.9015   40.3376 C.ar    1  UNL1        0.2006
     43 O          21.2565    7.3226   42.4613 O.3     1  UNL1       -0.5032
     44 O          15.1688   13.0826   45.3171 O.3     1  UNL1       -0.5009
     45 O          22.0122    6.6502   39.8540 O.3     1  UNL1       -0.5009
     46 H          21.6684   17.0278   37.7699 H       1  UNL1        0.1086
     47 H          23.0903   12.4471   35.4483 H       1  UNL1        0.0663
     48 H          20.8967   15.9348   34.1824 H       1  UNL1        0.0663
     49 H          20.0116   17.0474   39.5973 H       1  UNL1        0.0694
     50 H          21.8594   13.5745   39.1994 H       1  UNL1        0.0659
     51 H          19.0130   16.1511   37.0799 H       1  UNL1        0.2102
     52 H          19.5081   14.1278   38.7851 H       1  UNL1        0.0790
     53 H          22.8996   10.6545   34.0708 H       1  UNL1        0.2923
     54 H          20.1130   14.3651   31.0668 H       1  UNL1        0.2923
     55 H          20.2437   13.6098   41.0571 H       1  UNL1        0.0658
     56 H          22.6478   14.3451   41.9726 H       1  UNL1        0.0725
     57 H          23.8857   14.7145   40.7511 H       1  UNL1        0.0725
     58 H          21.5297   11.4712   31.4906 H       1  UNL1        0.2924
     59 H          19.9688   15.3247   42.3170 H       1  UNL1        0.2101
     60 H          15.2487   12.3762   40.8607 H       1  UNL1        0.0663
     61 H          18.1460   15.0808   42.5523 H       1  UNL1        0.0663
     62 H          23.5278   10.8552   39.3330 H       1  UNL1        0.0663
     63 H          21.7154    9.8085   43.1004 H       1  UNL1        0.0663
     64 H          13.6813   11.9413   44.0757 H       1  UNL1        0.2923
     65 H          18.0947   15.3397   44.6299 H       1  UNL1        0.2923
     66 H          22.7350    7.6612   37.9748 H       1  UNL1        0.2923
     67 H          21.2742    6.4617   42.0201 H       1  UNL1        0.2923
     68 H          14.5389   12.3615   45.1600 H       1  UNL1        0.2924
     69 H          21.6540    6.1609   40.6128 H       1  UNL1        0.2924
@<TRIPOS>BOND
     1     1     2    2
     2     2     3    1
     3     2     4    1
     4     3     5    1
     5     4     6   ar
     6     4     7   ar
     7     5     8    1
     8     5     9    1
     9     6    10   ar
    10     7    11   ar
    11     8    12    1
    12     9    13    1
    13     9    14    1
    14    10    15    1
    15    10    16   ar
    16    11    17    1
    17    12    18    1
    18    12    19    1
    19    14    20    1
    20    16    21    1
    21    18    22    1
    22    19    23    1
    23    20    24    1
    24    23    25    1
    25    24    26    2
    26    24    27    1
    27    25    28    2
    28    25    29    1
    29    27    30   ar
    30    27    31   ar
    31    29    32   ar
    32    29    33   ar
    33    30    34   ar
    34    31    35   ar
    35    32    36   ar
    36    33    37   ar
    37    34    38    1
    38    34    39   ar
    39    35    40    1
    40    36    41    1
    41    36    42   ar
    42    37    43    1
    43    39    44    1
    44    42    45    1
    45    11    16   ar
    46    14    18    1
    47    35    39   ar
    48    37    42   ar
    49     5    46    1
    50     6    47    1
    51     7    48    1
    52     9    49    1
    53    12    50    1
    54    13    51    1
    55    14    52    1
    56    15    53    1
    57    17    54    1
    58    18    55    1
    59    19    56    1
    60    19    57    1
    61    21    58    1
    62    22    59    1
    63    30    60    1
    64    31    61    1
    65    32    62    1
    66    33    63    1
    67    38    64    1
    68    40    65    1
    69    41    66    1
    70    43    67    1
    71    44    68    1
    72    45    69    1
@<TRIPOS>SUBSTRUCTURE
     1 UNL1        1 TEMP              0 ****  ****    0 ROOT


##########                                Name:                  18
##########                DOCK_Rotatable_Bonds:                  21
##########                         Heavy_Atoms:                  45
##########                    Molecular_Weight:             636.476
##########                       Formal_Charge:         0.000299454
##########                     HBond_Acceptors:                  18
##########                        HBond_Donors:                  11
##########                    Descriptor_Score:           46.131264
##########          Footprint_Similarity_Score:           17.014961
##########                 desc_FPS_vdw_energy:          -51.766174
##########                  desc_FPS_es_energy:           -6.945234
##########              desc_FPS_vdw+es_energy:          -58.711407
##########                  desc_FPS_num_hbond:                   3
##########                    desc_FPS_vdw_fps:           12.739644
##########                     desc_FPS_es_fps:            4.275318
##########                     desc_FPS_hb_fps:            2.236068
##########              desc_FPS_vdw_fp_numres:                 219
##########               desc_FPS_es_fp_numres:                 219
##########               desc_FPS_hb_fp_numres:                 219
##########                 Pharmacophore_Score:           20.000000
##########              desc_FMS_num_match_tot:                   0
##########              desc_FMS_max_match_ref:                  10
##########              desc_FMS_max_match_mol:                  33
##########                 desc_FMS_match_rate:            4.000000
##########                desc_FMS_match_resid:            0.000000
##########    desc_FMS_num_hydrophobic_matched:                   0
##########          desc_FMS_num_donor_matched:                   0
##########       desc_FMS_num_acceptor_matched:                   0
##########       desc_FMS_num_aromatic_matched:                   0
##########       desc_FMS_num_positive_matched:                   0
##########       desc_FMS_num_negative_matched:                   0
##########           desc_FMS_num_ring_matched:                   0
########## Hungarian_Matching_Similarity_Score:            9.242594
##########       desc_HMS_num_unmtchd_hvy_atms:                  24
##########           desc_HMS_num_ref_hvy_atms:                  23
##########        desc_HMS_rmsd_mtchd_hvy_atms:            9.025203
##########               Property_Volume_Score:            0.126291
##########               desc_VOS_geometric_vo:            0.207932
##########                desc_VOS_hvy_atom_vo:            0.187328
##########            desc_VOS_pos_chrg_atm_vo:            0.057398
##########            desc_VOS_neg_chrg_atm_vo:            0.157930
##########         desc_VOS_hydrophobic_atm_vo:            0.144739
##########         desc_VOS_hydrophilic_atm_vo:            0.002418
##########           Internal_energy_repulsive:           11.877862

@<TRIPOS>MOLECULE
18
 69 72 1 0 0
SMALL
GASTEIGER


@<TRIPOS>ATOM
      1 O          23.4331   15.1493   36.9270 O.2     1  UNL1       -0.2449
      2 C          22.3068   14.8975   36.5426 C.2     1  UNL1        0.3417
      3 O          21.2140   15.0608   37.3271 O.3     1  UNL1       -0.4287
      4 C          22.0522   14.3401   35.1706 C.ar    1  UNL1        0.0662
      5 C          21.2634   16.0304   38.4135 C.3     1  UNL1        0.2352
      6 C          22.6250   13.1146   34.8116 C.ar    1  UNL1       -0.0023
      7 C          21.2250   15.0011   34.2527 C.ar    1  UNL1       -0.0023
      8 O          22.1940   15.5994   39.4491 O.3     1  UNL1       -0.3300
      9 C          19.8612   16.1878   39.0451 C.3     1  UNL1        0.1565
     10 C          22.3438   12.5404   33.5741 C.ar    1  UNL1        0.1628
     11 C          20.9502   14.4269   33.0093 C.ar    1  UNL1        0.1628
     12 C          21.8682   14.3585   40.1458 C.3     1  UNL1        0.1260
     13 O          18.9112   16.6216   38.0633 O.3     1  UNL1       -0.3818
     14 C          19.4680   14.8441   39.7110 C.3     1  UNL1        0.1631
     15 O          22.8661   11.3279   33.2279 O.3     1  UNL1       -0.5032
     16 C          21.5000   13.1903   32.6810 C.ar    1  UNL1        0.2006
     17 O          20.1239   15.0471   32.1198 O.3     1  UNL1       -0.5032
     18 C          20.4824   14.4825   40.8063 C.3     1  UNL1        0.1241
     19 C          22.9450   14.0870   41.2091 C.3     1  UNL1        0.1216
     20 O          18.1549   14.9083   40.3160 O.3     1  UNL1       -0.4523
     21 O          21.2053   12.5745   31.5057 O.3     1  UNL1       -0.5009
     22 O          20.5101   15.4825   41.8346 O.3     1  UNL1       -0.3853
     23 O          23.3538   12.7090   41.1007 O.3     1  UNL1       -0.4584
     24 C          17.4310   13.7772   40.4099 C.2     1  UNL1        0.3398
     25 C          22.9103   11.8077   42.0012 C.2     1  UNL1        0.3395
     26 O          17.2589   13.0190   39.4718 O.2     1  UNL1       -0.2449
     27 C          16.7735   13.5612   41.7301 C.ar    1  UNL1        0.0661
     28 O          22.8320   12.0360   43.1939 O.2     1  UNL1       -0.2450
     29 C          22.6420   10.4593   41.4213 C.ar    1  UNL1        0.0661
     30 C          17.2588   14.1449   42.9079 C.ar    1  UNL1       -0.0023
     31 C          15.6148   12.7913   41.7654 C.ar    1  UNL1       -0.0023
     32 C          22.9248   10.1936   40.0772 C.ar    1  UNL1       -0.0023
     33 C          22.1261    9.4489   42.2336 C.ar    1  UNL1       -0.0023
     34 C          16.5612   13.9750   44.1043 C.ar    1  UNL1        0.1628
     35 C          14.9040   12.6448   42.9461 C.ar    1  UNL1        0.1628
     36 C          22.6890    8.9285   39.5508 C.ar    1  UNL1        0.1628
     37 C          21.9298    8.1714   41.7203 C.ar    1  UNL1        0.1628
     38 O          17.0093   14.5354   45.2753 O.3     1  UNL1       -0.5032
     39 C          15.3744   13.2435   44.1133 C.ar    1  UNL1        0.2006
     40 O          13.7358   11.9539   42.9087 O.3     1  UNL1       -0.5032
     41 O          22.9305    8.6711   38.2282 O.3     1  UNL1       -0.5032
     42 C          22.2052    7.9162   40.3778 C.ar    1  UNL1        0.2006
     43 O          21.4899    7.1810   42.5437 O.3     1  UNL1       -0.5032
     44 O          14.6775   13.1499   45.2736 O.3     1  UNL1       -0.5009
     45 O          22.0158    6.6861   39.8419 O.3     1  UNL1       -0.5009
     46 H          21.6071   16.9984   38.0146 H       1  UNL1        0.1086
     47 H          23.2768   12.5910   35.5069 H       1  UNL1        0.0663
     48 H          20.7798   15.9593   34.5080 H       1  UNL1        0.0663
     49 H          19.9168   16.9657   39.8110 H       1  UNL1        0.0694
     50 H          21.8503   13.5388   39.4210 H       1  UNL1        0.0659
     51 H          18.6431   15.8679   37.5118 H       1  UNL1        0.2102
     52 H          19.4951   14.0421   38.9672 H       1  UNL1        0.0790
     53 H          22.5922   11.1000   32.3276 H       1  UNL1        0.2923
     54 H          20.0405   14.5208   31.3188 H       1  UNL1        0.2923
     55 H          20.2002   13.5226   41.2485 H       1  UNL1        0.0658
     56 H          22.5651   14.2912   42.2153 H       1  UNL1        0.0725
     57 H          23.8155   14.7220   41.0272 H       1  UNL1        0.0725
     58 H          21.8281   11.8272   31.4484 H       1  UNL1        0.2924
     59 H          19.7145   15.3591   42.3855 H       1  UNL1        0.2101
     60 H          18.1697   14.7370   42.8966 H       1  UNL1        0.0663
     61 H          15.2342   12.3312   40.8554 H       1  UNL1        0.0663
     62 H          23.3114   10.9757   39.4282 H       1  UNL1        0.0663
     63 H          21.9124    9.6459   43.2815 H       1  UNL1        0.0663
     64 H          17.8180   15.0661   45.1364 H       1  UNL1        0.2923
     65 H          13.3625   11.9781   43.8040 H       1  UNL1        0.2923
     66 H          22.7774    7.7280   38.0332 H       1  UNL1        0.2923
     67 H          21.5953    6.3336   42.0888 H       1  UNL1        0.2923
     68 H          13.9045   12.6134   45.0372 H       1  UNL1        0.2924
     69 H          21.9197    6.1081   40.6166 H       1  UNL1        0.2924
@<TRIPOS>BOND
     1     1     2    2
     2     2     3    1
     3     2     4    1
     4     3     5    1
     5     4     6   ar
     6     4     7   ar
     7     5     8    1
     8     5     9    1
     9     6    10   ar
    10     7    11   ar
    11     8    12    1
    12     9    13    1
    13     9    14    1
    14    10    15    1
    15    10    16   ar
    16    11    17    1
    17    12    18    1
    18    12    19    1
    19    14    20    1
    20    16    21    1
    21    18    22    1
    22    19    23    1
    23    20    24    1
    24    23    25    1
    25    24    26    2
    26    24    27    1
    27    25    28    2
    28    25    29    1
    29    27    30   ar
    30    27    31   ar
    31    29    32   ar
    32    29    33   ar
    33    30    34   ar
    34    31    35   ar
    35    32    36   ar
    36    33    37   ar
    37    34    38    1
    38    34    39   ar
    39    35    40    1
    40    36    41    1
    41    36    42   ar
    42    37    43    1
    43    39    44    1
    44    42    45    1
    45    11    16   ar
    46    14    18    1
    47    35    39   ar
    48    37    42   ar
    49     5    46    1
    50     6    47    1
    51     7    48    1
    52     9    49    1
    53    12    50    1
    54    13    51    1
    55    14    52    1
    56    15    53    1
    57    17    54    1
    58    18    55    1
    59    19    56    1
    60    19    57    1
    61    21    58    1
    62    22    59    1
    63    30    60    1
    64    31    61    1
    65    32    62    1
    66    33    63    1
    67    38    64    1
    68    40    65    1
    69    41    66    1
    70    43    67    1
    71    44    68    1
    72    45    69    1
@<TRIPOS>SUBSTRUCTURE
     1 UNL1        1 TEMP              0 ****  ****    0 ROOT


##########                                Name:                  19
##########                DOCK_Rotatable_Bonds:                  15
##########                         Heavy_Atoms:                  43
##########                    Molecular_Weight:             610.569
##########                       Formal_Charge:         0.000100225
##########                     HBond_Acceptors:                  15
##########                        HBond_Donors:                   8
##########                    Descriptor_Score:           32.950665
##########          Footprint_Similarity_Score:            8.636397
##########                 desc_FPS_vdw_energy:          -49.163208
##########                  desc_FPS_es_energy:           -4.907540
##########              desc_FPS_vdw+es_energy:          -54.070747
##########                  desc_FPS_num_hbond:                   3
##########                    desc_FPS_vdw_fps:            6.194112
##########                     desc_FPS_es_fps:            2.442285
##########                     desc_FPS_hb_fps:            1.732051
##########              desc_FPS_vdw_fp_numres:                 219
##########               desc_FPS_es_fp_numres:                 219
##########               desc_FPS_hb_fp_numres:                 219
##########                 Pharmacophore_Score:           20.000000
##########              desc_FMS_num_match_tot:                   0
##########              desc_FMS_max_match_ref:                  10
##########              desc_FMS_max_match_mol:                  29
##########                 desc_FMS_match_rate:            4.000000
##########                desc_FMS_match_resid:            0.000000
##########    desc_FMS_num_hydrophobic_matched:                   0
##########          desc_FMS_num_donor_matched:                   0
##########       desc_FMS_num_acceptor_matched:                   0
##########       desc_FMS_num_aromatic_matched:                   0
##########       desc_FMS_num_positive_matched:                   0
##########       desc_FMS_num_negative_matched:                   0
##########           desc_FMS_num_ring_matched:                   0
########## Hungarian_Matching_Similarity_Score:            4.530662
##########       desc_HMS_num_unmtchd_hvy_atms:                  34
##########           desc_HMS_num_ref_hvy_atms:                  23
##########        desc_HMS_rmsd_mtchd_hvy_atms:            2.139358
##########               Property_Volume_Score:            0.216395
##########               desc_VOS_geometric_vo:            0.309050
##########                desc_VOS_hvy_atom_vo:            0.312015
##########            desc_VOS_pos_chrg_atm_vo:            0.111873
##########            desc_VOS_neg_chrg_atm_vo:            0.246377
##########         desc_VOS_hydrophobic_atm_vo:            0.248939
##########         desc_VOS_hydrophilic_atm_vo:            0.070118
##########           Internal_energy_repulsive:           12.554630

@<TRIPOS>MOLECULE
19
 77 81 1 0 0
SMALL
GASTEIGER


@<TRIPOS>ATOM
      1 O          12.7933   10.2138   44.0187 O.2     1  UNL1       -0.2917
      2 C          13.0643   11.3147   43.5769 C.2     1  UNL1        0.1740
      3 C          12.0513   12.2139   42.9147 C.ar    1  UNL1        0.1007
      4 C          14.5076   11.7712   43.5641 C.3     1  UNL1        0.0520
      5 C          12.4631   13.4805   42.4840 C.ar    1  UNL1        0.1389
      6 C          10.7206   11.8233   42.6865 C.ar    1  UNL1        0.1343
      7 C          14.6290   13.3046   43.6555 C.3     1  UNL1        0.1323
      8 O          13.7559   13.9156   42.6769 O.3     1  UNL1       -0.4828
      9 C          11.5871   14.3267   41.8139 C.ar    1  UNL1        0.0229
     10 O          10.2651   10.5947   43.0769 O.3     1  UNL1       -0.5058
     11 C           9.8445   12.6755   42.0055 C.ar    1  UNL1        0.0226
     12 C          16.0513   13.7561   43.3616 C.ar    1  UNL1       -0.0033
     13 C          10.2805   13.9283   41.5594 C.ar    1  UNL1        0.1310
     14 C          16.8490   14.2762   44.3831 C.ar    1  UNL1       -0.0098
     15 C          16.5593   13.6932   42.0663 C.ar    1  UNL1       -0.0514
     16 O           9.4827   14.8116   40.8534 O.3     1  UNL1       -0.4606
     17 C          18.1400   14.7306   44.1298 C.ar    1  UNL1        0.1588
     18 C          17.8459   14.1543   41.7997 C.ar    1  UNL1       -0.0159
     19 C           8.6731   15.8452   41.4652 C.3     1  UNL1        0.2308
     20 O          18.8477   15.2139   45.1956 O.3     1  UNL1       -0.5033
     21 C          18.6455   14.6794   42.8155 C.ar    1  UNL1        0.1613
     22 O           7.3370   15.3533   41.7622 O.3     1  UNL1       -0.3313
     23 C           8.5689   17.0390   40.4857 C.3     1  UNL1        0.1454
     24 O          19.9003   15.1241   42.4199 O.3     1  UNL1       -0.4915
     25 C           6.5602   14.8815   40.6259 C.3     1  UNL1        0.1144
     26 O           9.8810   17.4853   40.1127 O.3     1  UNL1       -0.3829
     27 C           7.7586   16.6343   39.2276 C.3     1  UNL1        0.1152
     28 C          20.7146   14.5348   41.3803 C.3     1  UNL1        0.0790
     29 C           6.3817   16.0442   39.6169 C.3     1  UNL1        0.1120
     30 C           5.2149   14.3443   41.1620 C.3     1  UNL1        0.0796
     31 O           7.5362   17.7792   38.4033 O.3     1  UNL1       -0.3864
     32 O           5.5538   17.0758   40.1771 O.3     1  UNL1       -0.3865
     33 O           5.3678   13.8600   42.5204 O.3     1  UNL1       -0.3461
     34 C           4.2427   13.0643   42.9798 C.3     1  UNL1        0.1879
     35 O           3.0521   13.8836   43.1320 O.3     1  UNL1       -0.3431
     36 C           4.5762   12.3847   44.3307 C.3     1  UNL1        0.1341
     37 C           3.1329   14.9372   44.1296 C.3     1  UNL1        0.0873
     38 O           5.8017   11.6530   44.2098 O.3     1  UNL1       -0.3841
     39 C           4.6635   13.4284   45.4727 C.3     1  UNL1        0.1140
     40 C           3.3834   14.2979   45.5176 C.3     1  UNL1        0.1095
     41 C           1.8253   15.7538   44.0833 C.3     1  UNL1       -0.0361
     42 O           4.8098   12.7700   46.7354 O.3     1  UNL1       -0.3864
     43 O           2.2584   13.4923   45.8985 O.3     1  UNL1       -0.3866
     44 H          14.9700   11.4228   42.6373 H       1  UNL1        0.0385
     45 H          15.0463   11.3139   44.3979 H       1  UNL1        0.0385
     46 H          14.3090   13.6340   44.6492 H       1  UNL1        0.0789
     47 H          11.9304   15.3015   41.4752 H       1  UNL1        0.0691
     48 H          10.9050   10.2112   43.7230 H       1  UNL1        0.2922
     49 H           8.8254   12.3472   41.8175 H       1  UNL1        0.0691
     50 H          16.4584   14.3374   45.3962 H       1  UNL1        0.0659
     51 H          15.9509   13.2971   41.2565 H       1  UNL1        0.0623
     52 H          18.2296   14.1113   40.7831 H       1  UNL1        0.0655
     53 H           9.1504   16.1575   42.4078 H       1  UNL1        0.1084
     54 H          18.2512   15.3248   45.9608 H       1  UNL1        0.2923
     55 H           8.0572   17.8606   40.9944 H       1  UNL1        0.0683
     56 H           7.1029   14.0629   40.1444 H       1  UNL1        0.0647
     57 H          10.1715   17.0024   39.3141 H       1  UNL1        0.2102
     58 H           8.3241   15.8875   38.6630 H       1  UNL1        0.0648
     59 H          21.6654   15.0710   41.3314 H       1  UNL1        0.0660
     60 H          20.1984   14.6214   40.4206 H       1  UNL1        0.0660
     61 H          20.9013   13.4831   41.6144 H       1  UNL1        0.0660
     62 H           5.8977   15.6602   38.7142 H       1  UNL1        0.0647
     63 H           4.8633   13.5250   40.5284 H       1  UNL1        0.0587
     64 H           4.4689   15.1438   41.1511 H       1  UNL1        0.0587
     65 H           6.7230   17.5882   37.8974 H       1  UNL1        0.2100
     66 H           5.0683   17.5021   39.4495 H       1  UNL1        0.2100
     67 H           4.0336   12.2966   42.2183 H       1  UNL1        0.0937
     68 H           3.7776   11.6758   44.5664 H       1  UNL1        0.0671
     69 H           3.9688   15.5972   43.8805 H       1  UNL1        0.0621
     70 H           5.6729   10.9283   43.5702 H       1  UNL1        0.2101
     71 H           5.5298   14.0741   45.3024 H       1  UNL1        0.0648
     72 H           3.5186   15.0884   46.2614 H       1  UNL1        0.0646
     73 H           0.9530   15.1124   44.2298 H       1  UNL1        0.0255
     74 H           1.7229   16.2473   43.1144 H       1  UNL1        0.0255
     75 H           1.8243   16.5212   44.8606 H       1  UNL1        0.0255
     76 H           4.8820   13.4677   47.4164 H       1  UNL1        0.2100
     77 H           2.1217   12.8242   45.2009 H       1  UNL1        0.2100
@<TRIPOS>BOND
     1     1     2    2
     2     2     3    1
     3     2     4    1
     4     3     5   ar
     5     3     6   ar
     6     4     7    1
     7     5     8    1
     8     5     9   ar
     9     6    10    1
    10     6    11   ar
    11     7    12    1
    12     9    13   ar
    13    12    14   ar
    14    12    15   ar
    15    13    16    1
    16    14    17   ar
    17    15    18   ar
    18    16    19    1
    19    17    20    1
    20    17    21   ar
    21    19    22    1
    22    19    23    1
    23    21    24    1
    24    22    25    1
    25    23    26    1
    26    23    27    1
    27    24    28    1
    28    25    29    1
    29    25    30    1
    30    27    31    1
    31    29    32    1
    32    30    33    1
    33    33    34    1
    34    34    35    1
    35    34    36    1
    36    35    37    1
    37    36    38    1
    38    36    39    1
    39    37    40    1
    40    37    41    1
    41    39    42    1
    42    40    43    1
    43     7     8    1
    44    11    13   ar
    45    18    21   ar
    46    27    29    1
    47    39    40    1
    48     4    44    1
    49     4    45    1
    50     7    46    1
    51     9    47    1
    52    10    48    1
    53    11    49    1
    54    14    50    1
    55    15    51    1
    56    18    52    1
    57    19    53    1
    58    20    54    1
    59    23    55    1
    60    25    56    1
    61    26    57    1
    62    27    58    1
    63    28    59    1
    64    28    60    1
    65    28    61    1
    66    29    62    1
    67    30    63    1
    68    30    64    1
    69    31    65    1
    70    32    66    1
    71    34    67    1
    72    36    68    1
    73    37    69    1
    74    38    70    1
    75    39    71    1
    76    40    72    1
    77    41    73    1
    78    41    74    1
    79    41    75    1
    80    42    76    1
    81    43    77    1
@<TRIPOS>SUBSTRUCTURE
     1 UNL1        1 TEMP              0 ****  ****    0 ROOT


##########                                Name:                  19
##########                DOCK_Rotatable_Bonds:                  15
##########                         Heavy_Atoms:                  43
##########                    Molecular_Weight:             610.569
##########                       Formal_Charge:         0.000100225
##########                     HBond_Acceptors:                  15
##########                        HBond_Donors:                   8
##########                    Descriptor_Score:           32.969803
##########          Footprint_Similarity_Score:            8.653227
##########                 desc_FPS_vdw_energy:          -49.210064
##########                  desc_FPS_es_energy:           -4.709754
##########              desc_FPS_vdw+es_energy:          -53.919819
##########                  desc_FPS_num_hbond:                   3
##########                    desc_FPS_vdw_fps:            6.186900
##########                     desc_FPS_es_fps:            2.466328
##########                     desc_FPS_hb_fps:            1.732051
##########              desc_FPS_vdw_fp_numres:                 219
##########               desc_FPS_es_fp_numres:                 219
##########               desc_FPS_hb_fp_numres:                 219
##########                 Pharmacophore_Score:           20.000000
##########              desc_FMS_num_match_tot:                   0
##########              desc_FMS_max_match_ref:                  10
##########              desc_FMS_max_match_mol:                  29
##########                 desc_FMS_match_rate:            4.000000
##########                desc_FMS_match_resid:            0.000000
##########    desc_FMS_num_hydrophobic_matched:                   0
##########          desc_FMS_num_donor_matched:                   0
##########       desc_FMS_num_acceptor_matched:                   0
##########       desc_FMS_num_aromatic_matched:                   0
##########       desc_FMS_num_positive_matched:                   0
##########       desc_FMS_num_negative_matched:                   0
##########           desc_FMS_num_ring_matched:                   0
########## Hungarian_Matching_Similarity_Score:            4.532560
##########       desc_HMS_num_unmtchd_hvy_atms:                  34
##########           desc_HMS_num_ref_hvy_atms:                  23
##########        desc_HMS_rmsd_mtchd_hvy_atms:            2.141256
##########               Property_Volume_Score:            0.215983
##########               desc_VOS_geometric_vo:            0.308886
##########                desc_VOS_hvy_atom_vo:            0.311830
##########            desc_VOS_pos_chrg_atm_vo:            0.111535
##########            desc_VOS_neg_chrg_atm_vo:            0.245282
##########         desc_VOS_hydrophobic_atm_vo:            0.248239
##########         desc_VOS_hydrophilic_atm_vo:            0.070124
##########           Internal_energy_repulsive:           12.586796

@<TRIPOS>MOLECULE
19
 77 81 1 0 0
SMALL
GASTEIGER


@<TRIPOS>ATOM
      1 O          12.8180   10.2240   44.0328 O.2     1  UNL1       -0.2917
      2 C          13.0896   11.3258   43.5937 C.2     1  UNL1        0.1740
      3 C          12.0780   12.2252   42.9298 C.ar    1  UNL1        0.1007
      4 C          14.5325   11.7835   43.5863 C.3     1  UNL1        0.0520
      5 C          12.4900   13.4929   42.5025 C.ar    1  UNL1        0.1389
      6 C          10.7483   11.8339   42.6966 C.ar    1  UNL1        0.1343
      7 C          14.6523   13.3169   43.6807 C.3     1  UNL1        0.1323
      8 O          13.7818   13.9288   42.7003 O.3     1  UNL1       -0.4828
      9 C          11.6155   14.3395   41.8310 C.ar    1  UNL1        0.0229
     10 O          10.2926   10.6043   43.0835 O.3     1  UNL1       -0.5058
     11 C           9.8737   12.6865   42.0142 C.ar    1  UNL1        0.0226
     12 C          16.0751   13.7700   43.3921 C.ar    1  UNL1       -0.0033
     13 C          10.3101   13.9405   41.5716 C.ar    1  UNL1        0.1310
     14 C          16.8692   14.2888   44.4171 C.ar    1  UNL1       -0.0098
     15 C          16.5873   13.7101   42.0983 C.ar    1  UNL1       -0.0514
     16 O           9.5138   14.8243   40.8645 O.3     1  UNL1       -0.4606
     17 C          18.1607   14.7447   44.1688 C.ar    1  UNL1        0.1588
     18 C          17.8743   14.1727   41.8367 C.ar    1  UNL1       -0.0159
     19 C           8.6896   15.8463   41.4764 C.3     1  UNL1        0.2308
     20 O          18.8646   15.2265   45.2377 O.3     1  UNL1       -0.5033
     21 C          18.6703   14.6965   42.8559 C.ar    1  UNL1        0.1613
     22 O           7.3568   15.3390   41.7624 O.3     1  UNL1       -0.3313
     23 C           8.5790   17.0438   40.5021 C.3     1  UNL1        0.1454
     24 O          19.9260   15.1429   42.4651 O.3     1  UNL1       -0.4915
     25 C           6.5922   14.8649   40.6189 C.3     1  UNL1        0.1144
     26 O           9.8887   17.5057   40.1397 O.3     1  UNL1       -0.3829
     27 C           7.7810   16.6371   39.2369 C.3     1  UNL1        0.1152
     28 C          20.7407   14.5610   41.4218 C.3     1  UNL1        0.0790
     29 C           6.4079   16.0307   39.6146 C.3     1  UNL1        0.1120
     30 C           5.2492   14.3109   41.1438 C.3     1  UNL1        0.0796
     31 O           7.5517   17.7838   38.4170 O.3     1  UNL1       -0.3864
     32 O           5.5657   17.0507   40.1746 O.3     1  UNL1       -0.3865
     33 O           5.3948   13.8364   42.5064 O.3     1  UNL1       -0.3461
     34 C           4.2667   13.0450   42.9658 C.3     1  UNL1        0.1879
     35 O           3.0755   13.8661   43.1042 O.3     1  UNL1       -0.3431
     36 C           4.5919   12.3765   44.3243 C.3     1  UNL1        0.1341
     37 C           3.1510   14.9279   44.0936 C.3     1  UNL1        0.0873
     38 O           5.8178   11.6433   44.2165 O.3     1  UNL1       -0.3841
     39 C           4.6730   13.4296   45.4581 C.3     1  UNL1        0.1140
     40 C           3.3930   14.2999   45.4882 C.3     1  UNL1        0.1095
     41 C           1.8441   15.7445   44.0328 C.3     1  UNL1       -0.0361
     42 O           4.8116   12.7816   46.7269 O.3     1  UNL1       -0.3864
     43 O           2.2655   13.4980   45.8692 O.3     1  UNL1       -0.3866
     44 H          14.9981   11.4371   42.6604 H       1  UNL1        0.0385
     45 H          15.0688   11.3253   44.4210 H       1  UNL1        0.0385
     46 H          14.3288   13.6444   44.6739 H       1  UNL1        0.0789
     47 H          11.9590   15.3152   41.4950 H       1  UNL1        0.0691
     48 H          10.9326   10.2187   43.7281 H       1  UNL1        0.2922
     49 H           8.8555   12.3577   41.8224 H       1  UNL1        0.0691
     50 H          16.4754   14.3477   45.4291 H       1  UNL1        0.0659
     51 H          15.9817   13.3152   41.2858 H       1  UNL1        0.0623
     52 H          18.2613   14.1320   40.8212 H       1  UNL1        0.0655
     53 H           9.1577   16.1588   42.4234 H       1  UNL1        0.1084
     54 H          18.2660   15.3342   46.0016 H       1  UNL1        0.2923
     55 H           8.0556   17.8575   41.0116 H       1  UNL1        0.0683
     56 H           7.1464   14.0544   40.1367 H       1  UNL1        0.0647
     57 H          10.1862   17.0353   39.3362 H       1  UNL1        0.2102
     58 H           8.3578   15.8991   38.6722 H       1  UNL1        0.0648
     59 H          21.6922   15.0965   41.3781 H       1  UNL1        0.0660
     60 H          20.2257   14.6556   40.4622 H       1  UNL1        0.0660
     61 H          20.9261   13.5073   41.6478 H       1  UNL1        0.0660
     62 H           5.9336   15.6462   38.7069 H       1  UNL1        0.0647
     63 H           4.9164   13.4831   40.5111 H       1  UNL1        0.0587
     64 H           4.4919   15.0994   41.1205 H       1  UNL1        0.0587
     65 H           6.7376   17.5914   37.9131 H       1  UNL1        0.2100
     66 H           5.0721   17.4682   39.4473 H       1  UNL1        0.2100
     67 H           4.0616   12.2711   42.2095 H       1  UNL1        0.0937
     68 H           3.7916   11.6699   44.5611 H       1  UNL1        0.0671
     69 H           3.9886   15.5854   43.8439 H       1  UNL1        0.0621
     70 H           5.6934   10.9156   43.5794 H       1  UNL1        0.2101
     71 H           5.5406   14.0735   45.2875 H       1  UNL1        0.0648
     72 H           3.5243   15.0965   46.2262 H       1  UNL1        0.0646
     73 H           0.9706   15.1048   44.1796 H       1  UNL1        0.0255
     74 H           1.7475   16.2301   43.0593 H       1  UNL1        0.0255
     75 H           1.8389   16.5184   44.8038 H       1  UNL1        0.0255
     76 H           4.0139   12.2316   46.8572 H       1  UNL1        0.2100
     77 H           2.1328   12.8240   45.1766 H       1  UNL1        0.2100
@<TRIPOS>BOND
     1     1     2    2
     2     2     3    1
     3     2     4    1
     4     3     5   ar
     5     3     6   ar
     6     4     7    1
     7     5     8    1
     8     5     9   ar
     9     6    10    1
    10     6    11   ar
    11     7    12    1
    12     9    13   ar
    13    12    14   ar
    14    12    15   ar
    15    13    16    1
    16    14    17   ar
    17    15    18   ar
    18    16    19    1
    19    17    20    1
    20    17    21   ar
    21    19    22    1
    22    19    23    1
    23    21    24    1
    24    22    25    1
    25    23    26    1
    26    23    27    1
    27    24    28    1
    28    25    29    1
    29    25    30    1
    30    27    31    1
    31    29    32    1
    32    30    33    1
    33    33    34    1
    34    34    35    1
    35    34    36    1
    36    35    37    1
    37    36    38    1
    38    36    39    1
    39    37    40    1
    40    37    41    1
    41    39    42    1
    42    40    43    1
    43     7     8    1
    44    11    13   ar
    45    18    21   ar
    46    27    29    1
    47    39    40    1
    48     4    44    1
    49     4    45    1
    50     7    46    1
    51     9    47    1
    52    10    48    1
    53    11    49    1
    54    14    50    1
    55    15    51    1
    56    18    52    1
    57    19    53    1
    58    20    54    1
    59    23    55    1
    60    25    56    1
    61    26    57    1
    62    27    58    1
    63    28    59    1
    64    28    60    1
    65    28    61    1
    66    29    62    1
    67    30    63    1
    68    30    64    1
    69    31    65    1
    70    32    66    1
    71    34    67    1
    72    36    68    1
    73    37    69    1
    74    38    70    1
    75    39    71    1
    76    40    72    1
    77    41    73    1
    78    41    74    1
    79    41    75    1
    80    42    76    1
    81    43    77    1
@<TRIPOS>SUBSTRUCTURE
     1 UNL1        1 TEMP              0 ****  ****    0 ROOT


##########                                Name:                  19
##########                DOCK_Rotatable_Bonds:                  15
##########                         Heavy_Atoms:                  43
##########                    Molecular_Weight:             610.569
##########                       Formal_Charge:         0.000100225
##########                     HBond_Acceptors:                  15
##########                        HBond_Donors:                   8
##########                    Descriptor_Score:           32.858250
##########          Footprint_Similarity_Score:            8.535145
##########                 desc_FPS_vdw_energy:          -48.692627
##########                  desc_FPS_es_energy:           -4.868191
##########              desc_FPS_vdw+es_energy:          -53.560818
##########                  desc_FPS_num_hbond:                   2
##########                    desc_FPS_vdw_fps:            6.134484
##########                     desc_FPS_es_fps:            2.400661
##########                     desc_FPS_hb_fps:            1.414214
##########              desc_FPS_vdw_fp_numres:                 219
##########               desc_FPS_es_fp_numres:                 219
##########               desc_FPS_hb_fp_numres:                 219
##########                 Pharmacophore_Score:           20.000000
##########              desc_FMS_num_match_tot:                   0
##########              desc_FMS_max_match_ref:                  10
##########              desc_FMS_max_match_mol:                  29
##########                 desc_FMS_match_rate:            4.000000
##########                desc_FMS_match_resid:            0.000000
##########    desc_FMS_num_hydrophobic_matched:                   0
##########          desc_FMS_num_donor_matched:                   0
##########       desc_FMS_num_acceptor_matched:                   0
##########       desc_FMS_num_aromatic_matched:                   0
##########       desc_FMS_num_positive_matched:                   0
##########       desc_FMS_num_negative_matched:                   0
##########           desc_FMS_num_ring_matched:                   0
########## Hungarian_Matching_Similarity_Score:            4.535503
##########       desc_HMS_num_unmtchd_hvy_atms:                  34
##########           desc_HMS_num_ref_hvy_atms:                  23
##########        desc_HMS_rmsd_mtchd_hvy_atms:            2.144199
##########               Property_Volume_Score:            0.212397
##########               desc_VOS_geometric_vo:            0.301742
##########                desc_VOS_hvy_atom_vo:            0.305642
##########            desc_VOS_pos_chrg_atm_vo:            0.109326
##########            desc_VOS_neg_chrg_atm_vo:            0.241667
##########         desc_VOS_hydrophobic_atm_vo:            0.246208
##########         desc_VOS_hydrophilic_atm_vo:            0.069795
##########           Internal_energy_repulsive:           12.476904

@<TRIPOS>MOLECULE
19
 77 81 1 0 0
SMALL
GASTEIGER


@<TRIPOS>ATOM
      1 O          12.7181   10.2657   44.0253 O.2     1  UNL1       -0.2917
      2 C          13.0209   11.3486   43.5603 C.2     1  UNL1        0.1740
      3 C          12.0348   12.2616   42.8767 C.ar    1  UNL1        0.1007
      4 C          14.4766   11.7636   43.5404 C.3     1  UNL1        0.0520
      5 C          12.4829   13.5063   42.4195 C.ar    1  UNL1        0.1389
      6 C          10.6937   11.9040   42.6544 C.ar    1  UNL1        0.1343
      7 C          14.6414   13.2946   43.5989 C.3     1  UNL1        0.1323
      8 O          13.7873   13.9087   42.6055 O.3     1  UNL1       -0.4828
      9 C          11.6322   14.3623   41.7295 C.ar    1  UNL1        0.0229
     10 O          10.2031   10.6976   43.0704 O.3     1  UNL1       -0.5058
     11 C           9.8432   12.7658   41.9534 C.ar    1  UNL1        0.0226
     12 C          16.0763   13.6990   43.2980 C.ar    1  UNL1       -0.0033
     13 C          10.3152   13.9958   41.4810 C.ar    1  UNL1        0.1310
     14 C          16.9277   14.0917   44.3331 C.ar    1  UNL1       -0.0098
     15 C          16.5443   13.7206   41.9865 C.ar    1  UNL1       -0.0514
     16 O           9.5438   14.8858   40.7545 O.3     1  UNL1       -0.4606
     17 C          18.2329   14.5021   44.0772 C.ar    1  UNL1        0.1588
     18 C          17.8450   14.1390   41.7180 C.ar    1  UNL1       -0.0159
     19 C           8.7057   15.9084   41.3461 C.3     1  UNL1        0.2308
     20 O          18.9937   14.8587   45.1561 O.3     1  UNL1       -0.5033
     21 C          18.6984   14.5370   42.7476 C.ar    1  UNL1        0.1613
     22 O           7.3703   15.3978   41.6132 O.3     1  UNL1       -0.3313
     23 C           8.6069   17.0994   40.3625 C.3     1  UNL1        0.1454
     24 O          19.9630   14.9515   42.3504 O.3     1  UNL1       -0.4915
     25 C           6.6266   14.9136   40.4601 C.3     1  UNL1        0.1144
     26 O           9.9207   17.5640   40.0190 O.3     1  UNL1       -0.3829
     27 C           7.8316   16.6817   39.0869 C.3     1  UNL1        0.1152
     28 C          20.7381   14.3784   41.2725 C.3     1  UNL1        0.0790
     29 C           6.4546   16.0724   39.4455 C.3     1  UNL1        0.1120
     30 C           5.2771   14.3579   40.9662 C.3     1  UNL1        0.0796
     31 O           7.6117   17.8223   38.2560 O.3     1  UNL1       -0.3864
     32 O           5.5995   17.0927   39.9850 O.3     1  UNL1       -0.3865
     33 O           5.4367   13.7536   42.2747 O.3     1  UNL1       -0.3461
     34 C           4.2666   13.0145   42.7160 C.3     1  UNL1        0.1879
     35 O           3.1264   13.8986   42.8902 O.3     1  UNL1       -0.3431
     36 C           4.5594   12.2830   44.0492 C.3     1  UNL1        0.1341
     37 C           3.2694   14.9206   43.9136 C.3     1  UNL1        0.0873
     38 O           5.7396   11.4835   43.9082 O.3     1  UNL1       -0.3841
     39 C           4.7083   13.2911   45.2165 C.3     1  UNL1        0.1140
     40 C           3.4818   14.2332   45.2849 C.3     1  UNL1        0.1095
     41 C           2.0124   15.8137   43.8895 C.3     1  UNL1       -0.0361
     42 O           4.8156   12.5941   46.4622 O.3     1  UNL1       -0.3864
     43 O           2.3113   13.4863   45.6474 O.3     1  UNL1       -0.3866
     44 H          14.9301   11.3822   42.6223 H       1  UNL1        0.0385
     45 H          15.0009   11.3095   44.3850 H       1  UNL1        0.0385
     46 H          14.3295   13.6545   44.5845 H       1  UNL1        0.0789
     47 H          12.0035   15.3194   41.3704 H       1  UNL1        0.0691
     48 H          10.8175   10.3225   43.7455 H       1  UNL1        0.2922
     49 H           8.8155   12.4625   41.7705 H       1  UNL1        0.0691
     50 H          16.5689   14.0864   45.3597 H       1  UNL1        0.0659
     51 H          15.8941   13.4244   41.1665 H       1  UNL1        0.0623
     52 H          18.1977   14.1631   40.6896 H       1  UNL1        0.0655
     53 H           9.1568   16.2287   42.2988 H       1  UNL1        0.1084
     54 H          18.4277   14.9189   45.9496 H       1  UNL1        0.2923
     55 H           8.0721   17.9142   40.8581 H       1  UNL1        0.0683
     56 H           7.1917   14.1022   39.9924 H       1  UNL1        0.0647
     57 H          10.4031   16.8530   39.5530 H       1  UNL1        0.2102
     58 H           8.4204   15.9424   38.5365 H       1  UNL1        0.0648
     59 H          21.7078   14.8804   41.2306 H       1  UNL1        0.0660
     60 H          20.2109   14.5263   40.3264 H       1  UNL1        0.0660
     61 H          20.8883   13.3113   41.4576 H       1  UNL1        0.0660
     62 H           5.9969   15.6804   38.5325 H       1  UNL1        0.0647
     63 H           4.9009   13.6043   40.2684 H       1  UNL1        0.0587
     64 H           4.5478   15.1697   41.0356 H       1  UNL1        0.0587
     65 H           6.7765   17.6478   37.7810 H       1  UNL1        0.2100
     66 H           5.3422   17.6867   39.2585 H       1  UNL1        0.2100
     67 H           4.0125   12.2796   41.9360 H       1  UNL1        0.0937
     68 H           3.7204   11.6169   44.2684 H       1  UNL1        0.0671
     69 H           4.1428   15.5359   43.6796 H       1  UNL1        0.0621
     70 H           6.4861   12.0646   43.6717 H       1  UNL1        0.2101
     71 H           5.6113   13.8886   45.0609 H       1  UNL1        0.0648
     72 H           3.6635   14.9956   46.0479 H       1  UNL1        0.0646
     73 H           1.1037   15.2216   44.0215 H       1  UNL1        0.0255
     74 H           1.9392   16.3364   42.9333 H       1  UNL1        0.0255
     75 H           2.0567   16.5603   44.6856 H       1  UNL1        0.0255
     76 H           4.9931   13.2640   47.1518 H       1  UNL1        0.2100
     77 H           2.4903   13.0493   46.5010 H       1  UNL1        0.2100
@<TRIPOS>BOND
     1     1     2    2
     2     2     3    1
     3     2     4    1
     4     3     5   ar
     5     3     6   ar
     6     4     7    1
     7     5     8    1
     8     5     9   ar
     9     6    10    1
    10     6    11   ar
    11     7    12    1
    12     9    13   ar
    13    12    14   ar
    14    12    15   ar
    15    13    16    1
    16    14    17   ar
    17    15    18   ar
    18    16    19    1
    19    17    20    1
    20    17    21   ar
    21    19    22    1
    22    19    23    1
    23    21    24    1
    24    22    25    1
    25    23    26    1
    26    23    27    1
    27    24    28    1
    28    25    29    1
    29    25    30    1
    30    27    31    1
    31    29    32    1
    32    30    33    1
    33    33    34    1
    34    34    35    1
    35    34    36    1
    36    35    37    1
    37    36    38    1
    38    36    39    1
    39    37    40    1
    40    37    41    1
    41    39    42    1
    42    40    43    1
    43     7     8    1
    44    11    13   ar
    45    18    21   ar
    46    27    29    1
    47    39    40    1
    48     4    44    1
    49     4    45    1
    50     7    46    1
    51     9    47    1
    52    10    48    1
    53    11    49    1
    54    14    50    1
    55    15    51    1
    56    18    52    1
    57    19    53    1
    58    20    54    1
    59    23    55    1
    60    25    56    1
    61    26    57    1
    62    27    58    1
    63    28    59    1
    64    28    60    1
    65    28    61    1
    66    29    62    1
    67    30    63    1
    68    30    64    1
    69    31    65    1
    70    32    66    1
    71    34    67    1
    72    36    68    1
    73    37    69    1
    74    38    70    1
    75    39    71    1
    76    40    72    1
    77    41    73    1
    78    41    74    1
    79    41    75    1
    80    42    76    1
    81    43    77    1
@<TRIPOS>SUBSTRUCTURE
     1 UNL1        1 TEMP              0 ****  ****    0 ROOT


##########                                Name:                  20
##########                DOCK_Rotatable_Bonds:                   2
##########                         Heavy_Atoms:                   9
##########                    Molecular_Weight:             124.139
##########                       Formal_Charge:        -5.96046e-08
##########                     HBond_Acceptors:                   2
##########                        HBond_Donors:                   1
##########                    Descriptor_Score:           38.788246
##########          Footprint_Similarity_Score:           10.971437
##########                 desc_FPS_vdw_energy:          -20.079857
##########                  desc_FPS_es_energy:           -0.913487
##########              desc_FPS_vdw+es_energy:          -20.993343
##########                  desc_FPS_num_hbond:                   0
##########                    desc_FPS_vdw_fps:            8.967089
##########                     desc_FPS_es_fps:            2.004349
##########                     desc_FPS_hb_fps:            0.000000
##########              desc_FPS_vdw_fp_numres:                 219
##########               desc_FPS_es_fp_numres:                 219
##########               desc_FPS_hb_fp_numres:                 219
##########                 Pharmacophore_Score:           20.000000
##########              desc_FMS_num_match_tot:                   0
##########              desc_FMS_max_match_ref:                  10
##########              desc_FMS_max_match_mol:                   4
##########                 desc_FMS_match_rate:            4.000000
##########                desc_FMS_match_resid:            0.000000
##########    desc_FMS_num_hydrophobic_matched:                   0
##########          desc_FMS_num_donor_matched:                   0
##########       desc_FMS_num_acceptor_matched:                   0
##########       desc_FMS_num_aromatic_matched:                   0
##########       desc_FMS_num_positive_matched:                   0
##########       desc_FMS_num_negative_matched:                   0
##########           desc_FMS_num_ring_matched:                   0
########## Hungarian_Matching_Similarity_Score:            7.816811
##########       desc_HMS_num_unmtchd_hvy_atms:                  16
##########           desc_HMS_num_ref_hvy_atms:                  23
##########        desc_HMS_rmsd_mtchd_hvy_atms:            9.338550
##########               Property_Volume_Score:            0.000000
##########               desc_VOS_geometric_vo:            0.000000
##########                desc_VOS_hvy_atom_vo:            0.000000
##########            desc_VOS_pos_chrg_atm_vo:            0.000000
##########            desc_VOS_neg_chrg_atm_vo:            0.000000
##########         desc_VOS_hydrophobic_atm_vo:            0.000000
##########         desc_VOS_hydrophilic_atm_vo:            0.000000
##########           Internal_energy_repulsive:            2.802621

@<TRIPOS>MOLECULE
20
 17 17 1 0 0
SMALL
GASTEIGER


@<TRIPOS>ATOM
      1 O          21.9489    7.3072   38.8179 O.3     1  UNL1       -0.4951
      2 C          22.1534    8.1850   39.8672 C.ar    1  UNL1        0.1203
      3 C          22.4590    7.5311   37.4829 C.3     1  UNL1        0.0788
      4 C          21.7038    7.9235   41.1665 C.ar    1  UNL1       -0.0165
      5 C          22.8335    9.3727   39.5999 C.ar    1  UNL1       -0.0165
      6 C          21.9337    8.8477   42.1841 C.ar    1  UNL1       -0.0167
      7 C          23.0631   10.2959   40.6182 C.ar    1  UNL1       -0.0167
      8 C          22.6124   10.0345   41.9106 C.ar    1  UNL1        0.1171
      9 O          22.8368   10.9422   42.9026 O.3     1  UNL1       -0.5068
     10 H          22.1718    6.6878   36.8492 H       1  UNL1        0.0660
     11 H          23.5494    7.6054   37.5167 H       1  UNL1        0.0660
     12 H          22.0307    8.4524   37.0788 H       1  UNL1        0.0660
     13 H          21.1727    7.0065   41.4028 H       1  UNL1        0.0655
     14 H          23.1853    9.5810   38.5929 H       1  UNL1        0.0655
     15 H          21.5802    8.6369   43.1903 H       1  UNL1        0.0655
     16 H          23.5933   11.2201   40.4012 H       1  UNL1        0.0655
     17 H          23.3189   11.7117   42.5499 H       1  UNL1        0.2921
@<TRIPOS>BOND
     1     1     2    1
     2     1     3    1
     3     2     4   ar
     4     2     5   ar
     5     4     6   ar
     6     5     7   ar
     7     6     8   ar
     8     8     9    1
     9     7     8   ar
    10     3    10    1
    11     3    11    1
    12     3    12    1
    13     4    13    1
    14     5    14    1
    15     6    15    1
    16     7    16    1
    17     9    17    1
@<TRIPOS>SUBSTRUCTURE
     1 UNL1        1 TEMP              0 ****  ****    0 ROOT


##########                                Name:                  20
##########                DOCK_Rotatable_Bonds:                   2
##########                         Heavy_Atoms:                   9
##########                    Molecular_Weight:             124.139
##########                       Formal_Charge:        -5.96046e-08
##########                     HBond_Acceptors:                   2
##########                        HBond_Donors:                   1
##########                    Descriptor_Score:           39.044785
##########          Footprint_Similarity_Score:           11.133987
##########                 desc_FPS_vdw_energy:          -20.115959
##########                  desc_FPS_es_energy:           -0.827826
##########              desc_FPS_vdw+es_energy:          -20.943785
##########                  desc_FPS_num_hbond:                   0
##########                    desc_FPS_vdw_fps:            9.148178
##########                     desc_FPS_es_fps:            1.985809
##########                     desc_FPS_hb_fps:            0.000000
##########              desc_FPS_vdw_fp_numres:                 219
##########               desc_FPS_es_fp_numres:                 219
##########               desc_FPS_hb_fp_numres:                 219
##########                 Pharmacophore_Score:           20.000000
##########              desc_FMS_num_match_tot:                   0
##########              desc_FMS_max_match_ref:                  10
##########              desc_FMS_max_match_mol:                   4
##########                 desc_FMS_match_rate:            4.000000
##########                desc_FMS_match_resid:            0.000000
##########    desc_FMS_num_hydrophobic_matched:                   0
##########          desc_FMS_num_donor_matched:                   0
##########       desc_FMS_num_acceptor_matched:                   0
##########       desc_FMS_num_aromatic_matched:                   0
##########       desc_FMS_num_positive_matched:                   0
##########       desc_FMS_num_negative_matched:                   0
##########           desc_FMS_num_ring_matched:                   0
########## Hungarian_Matching_Similarity_Score:            7.910798
##########       desc_HMS_num_unmtchd_hvy_atms:                  16
##########           desc_HMS_num_ref_hvy_atms:                  23
##########        desc_HMS_rmsd_mtchd_hvy_atms:            9.432537
##########               Property_Volume_Score:            0.000000
##########               desc_VOS_geometric_vo:            0.000000
##########                desc_VOS_hvy_atom_vo:            0.000000
##########            desc_VOS_pos_chrg_atm_vo:            0.000000
##########            desc_VOS_neg_chrg_atm_vo:            0.000000
##########         desc_VOS_hydrophobic_atm_vo:            0.000000
##########         desc_VOS_hydrophilic_atm_vo:            0.000000
##########           Internal_energy_repulsive:            2.813850

@<TRIPOS>MOLECULE
20
 17 17 1 0 0
SMALL
GASTEIGER


@<TRIPOS>ATOM
      1 O          22.1978    7.2890   38.7579 O.3     1  UNL1       -0.4951
      2 C          22.3316    8.1842   39.8040 C.ar    1  UNL1        0.1203
      3 C          22.7625    7.5103   37.4446 C.3     1  UNL1        0.0788
      4 C          21.7751    7.9548   41.0674 C.ar    1  UNL1       -0.0165
      5 C          23.0501    9.3563   39.5705 C.ar    1  UNL1       -0.0165
      6 C          21.9375    8.8954   42.0831 C.ar    1  UNL1       -0.0167
      7 C          23.2121   10.2959   40.5868 C.ar    1  UNL1       -0.0167
      8 C          22.6550   10.0665   41.8433 C.ar    1  UNL1        0.1171
      9 O          22.8138   10.9901   42.8333 O.3     1  UNL1       -0.5068
     10 H          22.5262    6.6525   36.8096 H       1  UNL1        0.0660
     11 H          23.8480    7.6136   37.5270 H       1  UNL1        0.0660
     12 H          22.3296    8.4154   37.0096 H       1  UNL1        0.0660
     13 H          21.2119    7.0505   41.2771 H       1  UNL1        0.0655
     14 H          23.4849    9.5396   38.5914 H       1  UNL1        0.0655
     15 H          21.5011    8.7095   43.0613 H       1  UNL1        0.0655
     16 H          23.7729   11.2077   40.3963 H       1  UNL1        0.0655
     17 H          23.3364   11.7447   42.5070 H       1  UNL1        0.2921
@<TRIPOS>BOND
     1     1     2    1
     2     1     3    1
     3     2     4   ar
     4     2     5   ar
     5     4     6   ar
     6     5     7   ar
     7     6     8   ar
     8     8     9    1
     9     7     8   ar
    10     3    10    1
    11     3    11    1
    12     3    12    1
    13     4    13    1
    14     5    14    1
    15     6    15    1
    16     7    16    1
    17     9    17    1
@<TRIPOS>SUBSTRUCTURE
     1 UNL1        1 TEMP              0 ****  ****    0 ROOT


##########                                Name:                  20
##########                DOCK_Rotatable_Bonds:                   2
##########                         Heavy_Atoms:                   9
##########                    Molecular_Weight:             124.139
##########                       Formal_Charge:        -5.96046e-08
##########                     HBond_Acceptors:                   2
##########                        HBond_Donors:                   1
##########                    Descriptor_Score:           38.509972
##########          Footprint_Similarity_Score:           10.696320
##########                 desc_FPS_vdw_energy:          -20.107674
##########                  desc_FPS_es_energy:           -0.634862
##########              desc_FPS_vdw+es_energy:          -20.742535
##########                  desc_FPS_num_hbond:                   1
##########                    desc_FPS_vdw_fps:            8.725737
##########                     desc_FPS_es_fps:            1.970583
##########                     desc_FPS_hb_fps:            1.000000
##########              desc_FPS_vdw_fp_numres:                 219
##########               desc_FPS_es_fp_numres:                 219
##########               desc_FPS_hb_fp_numres:                 219
##########                 Pharmacophore_Score:           20.000000
##########              desc_FMS_num_match_tot:                   0
##########              desc_FMS_max_match_ref:                  10
##########              desc_FMS_max_match_mol:                   4
##########                 desc_FMS_match_rate:            4.000000
##########                desc_FMS_match_resid:            0.000000
##########    desc_FMS_num_hydrophobic_matched:                   0
##########          desc_FMS_num_donor_matched:                   0
##########       desc_FMS_num_acceptor_matched:                   0
##########       desc_FMS_num_aromatic_matched:                   0
##########       desc_FMS_num_positive_matched:                   0
##########       desc_FMS_num_negative_matched:                   0
##########           desc_FMS_num_ring_matched:                   0
########## Hungarian_Matching_Similarity_Score:            7.813651
##########       desc_HMS_num_unmtchd_hvy_atms:                  16
##########           desc_HMS_num_ref_hvy_atms:                  23
##########        desc_HMS_rmsd_mtchd_hvy_atms:            9.335390
##########               Property_Volume_Score:            0.000000
##########               desc_VOS_geometric_vo:            0.000000
##########                desc_VOS_hvy_atom_vo:            0.000000
##########            desc_VOS_pos_chrg_atm_vo:            0.000000
##########            desc_VOS_neg_chrg_atm_vo:            0.000000
##########         desc_VOS_hydrophobic_atm_vo:            0.000000
##########         desc_VOS_hydrophilic_atm_vo:            0.000000
##########           Internal_energy_repulsive:            2.800686

@<TRIPOS>MOLECULE
20
 17 17 1 0 0
SMALL
GASTEIGER


@<TRIPOS>ATOM
      1 O          21.8714    7.3173   38.9860 O.3     1  UNL1       -0.4951
      2 C          22.1272    8.1850   40.0324 C.ar    1  UNL1        0.1203
      3 C          22.4195    7.4890   37.6584 C.3     1  UNL1        0.0788
      4 C          21.6470    7.9644   41.3284 C.ar    1  UNL1       -0.0165
      5 C          22.8929    9.3195   39.7656 C.ar    1  UNL1       -0.0165
      6 C          21.9319    8.8764   42.3431 C.ar    1  UNL1       -0.0167
      7 C          23.1774   10.2305   40.7810 C.ar    1  UNL1       -0.0167
      8 C          22.6962   10.0101   42.0701 C.ar    1  UNL1        0.1171
      9 O          22.9746   10.9059   43.0592 O.3     1  UNL1       -0.5068
     10 H          22.0770    6.6657   37.0259 H       1  UNL1        0.0660
     11 H          23.5117    7.4774   37.7103 H       1  UNL1        0.0660
     12 H          22.0719    8.4378   37.2406 H       1  UNL1        0.0660
     13 H          21.0495    7.0891   41.5643 H       1  UNL1        0.0655
     14 H          23.2689    9.4957   38.7612 H       1  UNL1        0.0655
     15 H          21.5541    8.6977   43.3467 H       1  UNL1        0.0655
     16 H          23.7743   11.1132   40.5645 H       1  UNL1        0.0655
     17 H          22.6042   10.5966   43.9054 H       1  UNL1        0.2921
@<TRIPOS>BOND
     1     1     2    1
     2     1     3    1
     3     2     4   ar
     4     2     5   ar
     5     4     6   ar
     6     5     7   ar
     7     6     8   ar
     8     8     9    1
     9     7     8   ar
    10     3    10    1
    11     3    11    1
    12     3    12    1
    13     4    13    1
    14     5    14    1
    15     6    15    1
    16     7    16    1
    17     9    17    1
@<TRIPOS>SUBSTRUCTURE
     1 UNL1        1 TEMP              0 ****  ****    0 ROOT


##########                                Name:                  21
##########                DOCK_Rotatable_Bonds:                   3
##########                         Heavy_Atoms:                  10
##########                    Molecular_Weight:             138.123
##########                       Formal_Charge:         0.000100017
##########                     HBond_Acceptors:                   3
##########                        HBond_Donors:                   2
##########                    Descriptor_Score:           38.920517
##########          Footprint_Similarity_Score:           11.075591
##########                 desc_FPS_vdw_energy:          -20.881777
##########                  desc_FPS_es_energy:           -1.006050
##########              desc_FPS_vdw+es_energy:          -21.887827
##########                  desc_FPS_num_hbond:                   0
##########                    desc_FPS_vdw_fps:            8.886075
##########                     desc_FPS_es_fps:            2.189516
##########                     desc_FPS_hb_fps:            0.000000
##########              desc_FPS_vdw_fp_numres:                 219
##########               desc_FPS_es_fp_numres:                 219
##########               desc_FPS_hb_fp_numres:                 219
##########                 Pharmacophore_Score:           20.000000
##########              desc_FMS_num_match_tot:                   0
##########              desc_FMS_max_match_ref:                  10
##########              desc_FMS_max_match_mol:                   6
##########                 desc_FMS_match_rate:            4.000000
##########                desc_FMS_match_resid:            0.000000
##########    desc_FMS_num_hydrophobic_matched:                   0
##########          desc_FMS_num_donor_matched:                   0
##########       desc_FMS_num_acceptor_matched:                   0
##########       desc_FMS_num_aromatic_matched:                   0
##########       desc_FMS_num_positive_matched:                   0
##########       desc_FMS_num_negative_matched:                   0
##########           desc_FMS_num_ring_matched:                   0
########## Hungarian_Matching_Similarity_Score:            7.844923
##########       desc_HMS_num_unmtchd_hvy_atms:                  15
##########           desc_HMS_num_ref_hvy_atms:                  23
##########        desc_HMS_rmsd_mtchd_hvy_atms:            9.584054
##########               Property_Volume_Score:            0.000000
##########               desc_VOS_geometric_vo:            0.000000
##########                desc_VOS_hvy_atom_vo:            0.000000
##########            desc_VOS_pos_chrg_atm_vo:            0.000000
##########            desc_VOS_neg_chrg_atm_vo:            0.000000
##########         desc_VOS_hydrophobic_atm_vo:            0.000000
##########         desc_VOS_hydrophilic_atm_vo:            0.000000
##########           Internal_energy_repulsive:            1.847969

@<TRIPOS>MOLECULE
21
 16 16 1 0 0
SMALL
GASTEIGER


@<TRIPOS>ATOM
      1 O          22.4073    9.8818   42.7044 O.2     1  UNL1       -0.2451
      2 C          22.0192    8.9263   42.0632 C.2     1  UNL1        0.3368
      3 O          21.3012    7.9888   42.6234 O.3     1  UNL1       -0.4771
      4 C          22.3643    8.7091   40.6147 C.ar    1  UNL1        0.0591
      5 C          22.0762    7.4758   40.0207 C.ar    1  UNL1       -0.0443
      6 C          22.9666    9.7085   39.8371 C.ar    1  UNL1       -0.0443
      7 C          22.3468    7.2545   38.6719 C.ar    1  UNL1       -0.0194
      8 C          23.2524    9.4813   38.4924 C.ar    1  UNL1       -0.0194
      9 C          22.9286    8.2613   37.9046 C.ar    1  UNL1        0.1169
     10 O          23.1723    8.0651   36.5794 O.3     1  UNL1       -0.5068
     11 H          21.1058    7.3260   41.9409 H       1  UNL1        0.2954
     12 H          21.6169    6.6815   40.6050 H       1  UNL1        0.0627
     13 H          23.2289   10.6715   40.2666 H       1  UNL1        0.0627
     14 H          22.0981    6.2957   38.2231 H       1  UNL1        0.0654
     15 H          23.7200   10.2634   37.8985 H       1  UNL1        0.0654
     16 H          22.8244    7.1987   36.3013 H       1  UNL1        0.2921
@<TRIPOS>BOND
     1     1     2    2
     2     2     3    1
     3     2     4    1
     4     4     5   ar
     5     4     6   ar
     6     5     7   ar
     7     6     8   ar
     8     7     9   ar
     9     9    10    1
    10     8     9   ar
    11     3    11    1
    12     5    12    1
    13     6    13    1
    14     7    14    1
    15     8    15    1
    16    10    16    1
@<TRIPOS>SUBSTRUCTURE
     1 UNL1        1 TEMP              0 ****  ****    0 ROOT


##########                                Name:                  21
##########                DOCK_Rotatable_Bonds:                   3
##########                         Heavy_Atoms:                  10
##########                    Molecular_Weight:             138.123
##########                       Formal_Charge:         0.000100017
##########                     HBond_Acceptors:                   3
##########                        HBond_Donors:                   2
##########                    Descriptor_Score:           39.194798
##########          Footprint_Similarity_Score:           11.232419
##########                 desc_FPS_vdw_energy:          -19.371471
##########                  desc_FPS_es_energy:           -2.857209
##########              desc_FPS_vdw+es_energy:          -22.228680
##########                  desc_FPS_num_hbond:                   2
##########                    desc_FPS_vdw_fps:            8.629115
##########                     desc_FPS_es_fps:            2.603304
##########                     desc_FPS_hb_fps:            1.414214
##########              desc_FPS_vdw_fp_numres:                 219
##########               desc_FPS_es_fp_numres:                 219
##########               desc_FPS_hb_fp_numres:                 219
##########                 Pharmacophore_Score:           20.000000
##########              desc_FMS_num_match_tot:                   0
##########              desc_FMS_max_match_ref:                  10
##########              desc_FMS_max_match_mol:                   6
##########                 desc_FMS_match_rate:            4.000000
##########                desc_FMS_match_resid:            0.000000
##########    desc_FMS_num_hydrophobic_matched:                   0
##########          desc_FMS_num_donor_matched:                   0
##########       desc_FMS_num_acceptor_matched:                   0
##########       desc_FMS_num_aromatic_matched:                   0
##########       desc_FMS_num_positive_matched:                   0
##########       desc_FMS_num_negative_matched:                   0
##########           desc_FMS_num_ring_matched:                   0
########## Hungarian_Matching_Similarity_Score:            7.962379
##########       desc_HMS_num_unmtchd_hvy_atms:                  15
##########           desc_HMS_num_ref_hvy_atms:                  23
##########        desc_HMS_rmsd_mtchd_hvy_atms:            9.701509
##########               Property_Volume_Score:            0.000000
##########               desc_VOS_geometric_vo:            0.000000
##########                desc_VOS_hvy_atom_vo:            0.000000
##########            desc_VOS_pos_chrg_atm_vo:            0.000000
##########            desc_VOS_neg_chrg_atm_vo:            0.000000
##########         desc_VOS_hydrophobic_atm_vo:            0.000000
##########         desc_VOS_hydrophilic_atm_vo:            0.000000
##########           Internal_energy_repulsive:            1.508759

@<TRIPOS>MOLECULE
21
 16 16 1 0 0
SMALL
GASTEIGER


@<TRIPOS>ATOM
      1 O          24.4216   10.0798   37.7626 O.2     1  UNL1       -0.2451
      2 C          24.0670   10.5446   38.8270 C.2     1  UNL1        0.3368
      3 O          24.3943   11.7626   39.1702 O.3     1  UNL1       -0.4771
      4 C          23.2840    9.7648   39.8484 C.ar    1  UNL1        0.0591
      5 C          22.7682    8.5112   39.5031 C.ar    1  UNL1       -0.0443
      6 C          23.0553   10.2559   41.1417 C.ar    1  UNL1       -0.0443
      7 C          22.0721    7.7459   40.4366 C.ar    1  UNL1       -0.0194
      8 C          22.3448    9.4976   42.0700 C.ar    1  UNL1       -0.0194
      9 C          21.8668    8.2364   41.7243 C.ar    1  UNL1        0.1169
     10 O          21.2116    7.4855   42.6522 O.3     1  UNL1       -0.5068
     11 H          24.0400   11.9182   40.0609 H       1  UNL1        0.2954
     12 H          22.9247    8.1119   38.5034 H       1  UNL1        0.0627
     13 H          23.4176   11.2352   41.4420 H       1  UNL1        0.0627
     14 H          21.6952    6.7654   40.1554 H       1  UNL1        0.0654
     15 H          22.1728    9.8883   43.0704 H       1  UNL1        0.0654
     16 H          21.0050    6.6073   42.2846 H       1  UNL1        0.2921
@<TRIPOS>BOND
     1     1     2    2
     2     2     3    1
     3     2     4    1
     4     4     5   ar
     5     4     6   ar
     6     5     7   ar
     7     6     8   ar
     8     7     9   ar
     9     9    10    1
    10     8     9   ar
    11     3    11    1
    12     5    12    1
    13     6    13    1
    14     7    14    1
    15     8    15    1
    16    10    16    1
@<TRIPOS>SUBSTRUCTURE
     1 UNL1        1 TEMP              0 ****  ****    0 ROOT


##########                                Name:                  21
##########                DOCK_Rotatable_Bonds:                   3
##########                         Heavy_Atoms:                  10
##########                    Molecular_Weight:             138.123
##########                       Formal_Charge:         0.000100017
##########                     HBond_Acceptors:                   3
##########                        HBond_Donors:                   2
##########                    Descriptor_Score:           39.154964
##########          Footprint_Similarity_Score:           11.306428
##########                 desc_FPS_vdw_energy:          -19.268761
##########                  desc_FPS_es_energy:           -2.988026
##########              desc_FPS_vdw+es_energy:          -22.256786
##########                  desc_FPS_num_hbond:                   2
##########                    desc_FPS_vdw_fps:            8.651903
##########                     desc_FPS_es_fps:            2.654525
##########                     desc_FPS_hb_fps:            1.414214
##########              desc_FPS_vdw_fp_numres:                 219
##########               desc_FPS_es_fp_numres:                 219
##########               desc_FPS_hb_fp_numres:                 219
##########                 Pharmacophore_Score:           20.000000
##########              desc_FMS_num_match_tot:                   0
##########              desc_FMS_max_match_ref:                  10
##########              desc_FMS_max_match_mol:                   6
##########                 desc_FMS_match_rate:            4.000000
##########                desc_FMS_match_resid:            0.000000
##########    desc_FMS_num_hydrophobic_matched:                   0
##########          desc_FMS_num_donor_matched:                   0
##########       desc_FMS_num_acceptor_matched:                   0
##########       desc_FMS_num_aromatic_matched:                   0
##########       desc_FMS_num_positive_matched:                   0
##########       desc_FMS_num_negative_matched:                   0
##########           desc_FMS_num_ring_matched:                   0
########## Hungarian_Matching_Similarity_Score:            7.848536
##########       desc_HMS_num_unmtchd_hvy_atms:                  15
##########           desc_HMS_num_ref_hvy_atms:                  23
##########        desc_HMS_rmsd_mtchd_hvy_atms:            9.587667
##########               Property_Volume_Score:            0.000000
##########               desc_VOS_geometric_vo:            0.000000
##########                desc_VOS_hvy_atom_vo:            0.000000
##########            desc_VOS_pos_chrg_atm_vo:            0.000000
##########            desc_VOS_neg_chrg_atm_vo:            0.000000
##########         desc_VOS_hydrophobic_atm_vo:            0.000000
##########         desc_VOS_hydrophilic_atm_vo:            0.000000
##########           Internal_energy_repulsive:            1.408121

@<TRIPOS>MOLECULE
21
 16 16 1 0 0
SMALL
GASTEIGER


@<TRIPOS>ATOM
      1 O          24.0925   10.3246   37.7666 O.2     1  UNL1       -0.2451
      2 C          24.0077   10.6137   38.9431 C.2     1  UNL1        0.3368
      3 O          24.6496   11.6432   39.4293 O.3     1  UNL1       -0.4771
      4 C          23.2200    9.8042   39.9373 C.ar    1  UNL1        0.0591
      5 C          22.7443    8.5418   39.5674 C.ar    1  UNL1       -0.0443
      6 C          22.9476   10.2762   41.2293 C.ar    1  UNL1       -0.0443
      7 C          22.0452    7.7499   40.4760 C.ar    1  UNL1       -0.0194
      8 C          22.2341    9.4909   42.1324 C.ar    1  UNL1       -0.0194
      9 C          21.7964    8.2218   41.7629 C.ar    1  UNL1        0.1169
     10 O          21.1380    7.4453   42.6671 O.3     1  UNL1       -0.5068
     11 H          24.3312   11.7818   40.3363 H       1  UNL1        0.2954
     12 H          22.9351    8.1568   38.5680 H       1  UNL1        0.0627
     13 H          23.2778   11.2610   41.5479 H       1  UNL1        0.0627
     14 H          21.7000    6.7632   40.1761 H       1  UNL1        0.0654
     15 H          22.0280    9.8669   43.1321 H       1  UNL1        0.0654
     16 H          20.9162    6.5846   42.2684 H       1  UNL1        0.2921
@<TRIPOS>BOND
     1     1     2    2
     2     2     3    1
     3     2     4    1
     4     4     5   ar
     5     4     6   ar
     6     5     7   ar
     7     6     8   ar
     8     7     9   ar
     9     9    10    1
    10     8     9   ar
    11     3    11    1
    12     5    12    1
    13     6    13    1
    14     7    14    1
    15     8    15    1
    16    10    16    1
@<TRIPOS>SUBSTRUCTURE
     1 UNL1        1 TEMP              0 ****  ****    0 ROOT


##########                                Name:                  22
##########                DOCK_Rotatable_Bonds:                   2
##########                         Heavy_Atoms:                  18
##########                    Molecular_Weight:             238.243
##########                       Formal_Charge:         5.96046e-08
##########                     HBond_Acceptors:                   3
##########                        HBond_Donors:                   1
##########                    Descriptor_Score:           43.132359
##########          Footprint_Similarity_Score:           12.803465
##########                 desc_FPS_vdw_energy:          -25.977400
##########                  desc_FPS_es_energy:           -1.405154
##########              desc_FPS_vdw+es_energy:          -27.382553
##########                  desc_FPS_num_hbond:                   2
##########                    desc_FPS_vdw_fps:           10.480498
##########                     desc_FPS_es_fps:            2.322967
##########                     desc_FPS_hb_fps:            1.414214
##########              desc_FPS_vdw_fp_numres:                 219
##########               desc_FPS_es_fp_numres:                 219
##########               desc_FPS_hb_fp_numres:                 219
##########                 Pharmacophore_Score:           20.000000
##########              desc_FMS_num_match_tot:                   0
##########              desc_FMS_max_match_ref:                  10
##########              desc_FMS_max_match_mol:                   7
##########                 desc_FMS_match_rate:            4.000000
##########                desc_FMS_match_resid:            0.000000
##########    desc_FMS_num_hydrophobic_matched:                   0
##########          desc_FMS_num_donor_matched:                   0
##########       desc_FMS_num_acceptor_matched:                   0
##########       desc_FMS_num_aromatic_matched:                   0
##########       desc_FMS_num_positive_matched:                   0
##########       desc_FMS_num_negative_matched:                   0
##########           desc_FMS_num_ring_matched:                   0
########## Hungarian_Matching_Similarity_Score:           10.328893
##########       desc_HMS_num_unmtchd_hvy_atms:                   7
##########           desc_HMS_num_ref_hvy_atms:                  23
##########        desc_HMS_rmsd_mtchd_hvy_atms:           13.807154
##########               Property_Volume_Score:            0.000000
##########               desc_VOS_geometric_vo:            0.000000
##########                desc_VOS_hvy_atom_vo:            0.000000
##########            desc_VOS_pos_chrg_atm_vo:            0.000000
##########            desc_VOS_neg_chrg_atm_vo:            0.000000
##########         desc_VOS_hydrophobic_atm_vo:            0.000000
##########         desc_VOS_hydrophilic_atm_vo:            0.000000
##########           Internal_energy_repulsive:            1.710292

@<TRIPOS>MOLECULE
22
 28 30 1 0 0
SMALL
GASTEIGER


@<TRIPOS>ATOM
      1 O          22.0189    5.9778   39.4547 O.2     1  UNL1       -0.2870
      2 C          22.4458    7.0550   39.0873 C.ar    1  UNL1        0.1931
      3 C          22.5457    8.2414   39.9506 C.ar    1  UNL1        0.0640
      4 C          22.9320    7.3234   37.7119 C.ar    1  UNL1        0.0288
      5 C          23.0546    9.3711   39.3438 C.ar    1  UNL1        0.1392
      6 C          22.1698    8.3233   41.3418 C.ar    1  UNL1       -0.0474
      7 C          23.3194    8.3406   37.4266 C.ar    1  UNL1        0.1427
      8 O          23.4126    9.2989   38.0056 O.2     1  UNL1       -0.4545
      9 C          23.2154   10.5885   40.0990 C.ar    1  UNL1       -0.0186
     10 C          22.3260    9.5053   42.0617 C.ar    1  UNL1       -0.0609
     11 C          23.7428    8.5738   36.0052 C.ar    1  UNL1        0.0588
     12 C          22.8501   10.6362   41.4417 C.ar    1  UNL1       -0.0582
     13 C          25.1045    8.6717   35.6513 C.ar    1  UNL1        0.1275
     14 C          22.7648    8.7547   35.0113 C.ar    1  UNL1       -0.0476
     15 O          26.0923    8.4958   36.5761 O.3     1  UNL1       -0.5061
     16 C          25.4624    8.9592   34.3347 C.ar    1  UNL1       -0.0195
     17 C          23.1391    9.0324   33.6982 C.ar    1  UNL1       -0.0609
     18 C          24.4847    9.1398   33.3606 C.ar    1  UNL1       -0.0583
     19 H          22.8788    6.4836   37.0241 H       1  UNL1        0.0693
     20 H          21.7582    7.4404   41.8263 H       1  UNL1        0.0626
     21 H          23.6265   11.4704   39.6144 H       1  UNL1        0.0654
     22 H          22.0382    9.5440   43.1097 H       1  UNL1        0.0618
     23 H          22.9740   11.5570   42.0059 H       1  UNL1        0.0619
     24 H          21.7086    8.6849   35.2596 H       1  UNL1        0.0626
     25 H          25.7133    8.6198   37.4671 H       1  UNL1        0.2922
     26 H          26.5128    9.0426   34.0647 H       1  UNL1        0.0654
     27 H          22.3764    9.1728   32.9357 H       1  UNL1        0.0618
     28 H          24.7732    9.3639   32.3365 H       1  UNL1        0.0619
@<TRIPOS>BOND
     1     1     2    2
     2     2     3   ar
     3     2     4   ar
     4     3     5   ar
     5     3     6   ar
     6     4     7   ar
     7     5     8   ar
     8     5     9   ar
     9     6    10   ar
    10     7    11    1
    11     9    12   ar
    12    11    13   ar
    13    11    14   ar
    14    13    15    1
    15    13    16   ar
    16    14    17   ar
    17    16    18   ar
    18     7     8   ar
    19    10    12   ar
    20    17    18   ar
    21     4    19    1
    22     6    20    1
    23     9    21    1
    24    10    22    1
    25    12    23    1
    26    14    24    1
    27    15    25    1
    28    16    26    1
    29    17    27    1
    30    18    28    1
@<TRIPOS>SUBSTRUCTURE
     1 UNL1        1 TEMP              0 ****  ****    0 ROOT


##########                                Name:                  22
##########                DOCK_Rotatable_Bonds:                   2
##########                         Heavy_Atoms:                  18
##########                    Molecular_Weight:             238.243
##########                       Formal_Charge:         5.96046e-08
##########                     HBond_Acceptors:                   3
##########                        HBond_Donors:                   1
##########                    Descriptor_Score:           43.294380
##########          Footprint_Similarity_Score:           12.896677
##########                 desc_FPS_vdw_energy:          -26.048780
##########                  desc_FPS_es_energy:           -1.482558
##########              desc_FPS_vdw+es_energy:          -27.531338
##########                  desc_FPS_num_hbond:                   2
##########                    desc_FPS_vdw_fps:           10.676606
##########                     desc_FPS_es_fps:            2.220071
##########                     desc_FPS_hb_fps:            1.414214
##########              desc_FPS_vdw_fp_numres:                 219
##########               desc_FPS_es_fp_numres:                 219
##########               desc_FPS_hb_fp_numres:                 219
##########                 Pharmacophore_Score:           20.000000
##########              desc_FMS_num_match_tot:                   0
##########              desc_FMS_max_match_ref:                  10
##########              desc_FMS_max_match_mol:                   7
##########                 desc_FMS_match_rate:            4.000000
##########                desc_FMS_match_resid:            0.000000
##########    desc_FMS_num_hydrophobic_matched:                   0
##########          desc_FMS_num_donor_matched:                   0
##########       desc_FMS_num_acceptor_matched:                   0
##########       desc_FMS_num_aromatic_matched:                   0
##########       desc_FMS_num_positive_matched:                   0
##########       desc_FMS_num_negative_matched:                   0
##########           desc_FMS_num_ring_matched:                   0
########## Hungarian_Matching_Similarity_Score:           10.397706
##########       desc_HMS_num_unmtchd_hvy_atms:                   7
##########           desc_HMS_num_ref_hvy_atms:                  23
##########        desc_HMS_rmsd_mtchd_hvy_atms:           13.875967
##########               Property_Volume_Score:            0.000000
##########               desc_VOS_geometric_vo:            0.000000
##########                desc_VOS_hvy_atom_vo:            0.000000
##########            desc_VOS_pos_chrg_atm_vo:            0.000000
##########            desc_VOS_neg_chrg_atm_vo:            0.000000
##########         desc_VOS_hydrophobic_atm_vo:            0.000000
##########         desc_VOS_hydrophilic_atm_vo:            0.000000
##########           Internal_energy_repulsive:            2.889857

@<TRIPOS>MOLECULE
22
 28 30 1 0 0
SMALL
GASTEIGER


@<TRIPOS>ATOM
      1 O          26.4744    8.7226   35.5610 O.2     1  UNL1       -0.2870
      2 C          25.2891    8.6618   35.8236 C.ar    1  UNL1        0.1931
      3 C          24.2267    8.5177   34.8170 C.ar    1  UNL1        0.0640
      4 C          24.7463    8.7205   37.2029 C.ar    1  UNL1        0.0288
      5 C          22.9421    8.4706   35.3178 C.ar    1  UNL1        0.1392
      6 C          24.4072    8.4209   33.3881 C.ar    1  UNL1       -0.0474
      7 C          23.6384    8.6573   37.3886 C.ar    1  UNL1        0.1427
      8 O          22.7630    8.5684   36.6898 O.2     1  UNL1       -0.4545
      9 C          21.8220    8.3121   34.4242 C.ar    1  UNL1       -0.0186
     10 C          23.3181    8.2712   32.5331 C.ar    1  UNL1       -0.0609
     11 C          23.1396    8.7821   38.7991 C.ar    1  UNL1        0.0588
     12 C          22.0269    8.2148   33.0506 C.ar    1  UNL1       -0.0582
     13 C          22.3294    7.7859   39.3824 C.ar    1  UNL1        0.1275
     14 C          23.4367    9.9399   39.5396 C.ar    1  UNL1       -0.0476
     15 O          22.0190    6.6400   38.7096 O.3     1  UNL1       -0.5061
     16 C          21.8243    7.9652   40.6696 C.ar    1  UNL1       -0.0195
     17 C          22.9315   10.0998   40.8283 C.ar    1  UNL1       -0.0609
     18 C          22.1226    9.1175   41.3910 C.ar    1  UNL1       -0.0583
     19 H          25.4848    8.8318   37.9924 H       1  UNL1        0.0693
     20 H          25.4159    8.4670   32.9830 H       1  UNL1        0.0626
     21 H          20.8144    8.2662   34.8295 H       1  UNL1        0.0654
     22 H          23.4773    8.1981   31.4598 H       1  UNL1        0.0618
     23 H          21.1783    8.0951   32.3819 H       1  UNL1        0.0619
     24 H          24.0585   10.7224   39.1114 H       1  UNL1        0.0626
     25 H          22.6373    6.5388   37.9609 H       1  UNL1        0.2922
     26 H          21.1928    7.1998   41.1152 H       1  UNL1        0.0654
     27 H          23.1646   10.9991   41.3938 H       1  UNL1        0.0618
     28 H          21.7240    9.2487   42.3941 H       1  UNL1        0.0619
@<TRIPOS>BOND
     1     1     2    2
     2     2     3   ar
     3     2     4   ar
     4     3     5   ar
     5     3     6   ar
     6     4     7   ar
     7     5     8   ar
     8     5     9   ar
     9     6    10   ar
    10     7    11    1
    11     9    12   ar
    12    11    13   ar
    13    11    14   ar
    14    13    15    1
    15    13    16   ar
    16    14    17   ar
    17    16    18   ar
    18     7     8   ar
    19    10    12   ar
    20    17    18   ar
    21     4    19    1
    22     6    20    1
    23     9    21    1
    24    10    22    1
    25    12    23    1
    26    14    24    1
    27    15    25    1
    28    16    26    1
    29    17    27    1
    30    18    28    1
@<TRIPOS>SUBSTRUCTURE
     1 UNL1        1 TEMP              0 ****  ****    0 ROOT


##########                                Name:                  22
##########                DOCK_Rotatable_Bonds:                   2
##########                         Heavy_Atoms:                  18
##########                    Molecular_Weight:             238.243
##########                       Formal_Charge:         5.96046e-08
##########                     HBond_Acceptors:                   3
##########                        HBond_Donors:                   1
##########                    Descriptor_Score:           43.095619
##########          Footprint_Similarity_Score:           12.703650
##########                 desc_FPS_vdw_energy:          -24.264402
##########                  desc_FPS_es_energy:           -2.676724
##########              desc_FPS_vdw+es_energy:          -26.941126
##########                  desc_FPS_num_hbond:                   2
##########                    desc_FPS_vdw_fps:           10.171239
##########                     desc_FPS_es_fps:            2.532411
##########                     desc_FPS_hb_fps:            1.414214
##########              desc_FPS_vdw_fp_numres:                 219
##########               desc_FPS_es_fp_numres:                 219
##########               desc_FPS_hb_fp_numres:                 219
##########                 Pharmacophore_Score:           20.000000
##########              desc_FMS_num_match_tot:                   0
##########              desc_FMS_max_match_ref:                  10
##########              desc_FMS_max_match_mol:                   7
##########                 desc_FMS_match_rate:            4.000000
##########                desc_FMS_match_resid:            0.000000
##########    desc_FMS_num_hydrophobic_matched:                   0
##########          desc_FMS_num_donor_matched:                   0
##########       desc_FMS_num_acceptor_matched:                   0
##########       desc_FMS_num_aromatic_matched:                   0
##########       desc_FMS_num_positive_matched:                   0
##########       desc_FMS_num_negative_matched:                   0
##########           desc_FMS_num_ring_matched:                   0
########## Hungarian_Matching_Similarity_Score:           10.391969
##########       desc_HMS_num_unmtchd_hvy_atms:                   7
##########           desc_HMS_num_ref_hvy_atms:                  23
##########        desc_HMS_rmsd_mtchd_hvy_atms:           13.870229
##########               Property_Volume_Score:            0.000000
##########               desc_VOS_geometric_vo:            0.000000
##########                desc_VOS_hvy_atom_vo:            0.000000
##########            desc_VOS_pos_chrg_atm_vo:            0.000000
##########            desc_VOS_neg_chrg_atm_vo:            0.000000
##########         desc_VOS_hydrophobic_atm_vo:            0.000000
##########         desc_VOS_hydrophilic_atm_vo:            0.000000
##########           Internal_energy_repulsive:            1.544414

@<TRIPOS>MOLECULE
22
 28 30 1 0 0
SMALL
GASTEIGER


@<TRIPOS>ATOM
      1 O          21.7729    6.3280   38.7283 O.2     1  UNL1       -0.2870
      2 C          22.4198    7.3571   38.7203 C.ar    1  UNL1        0.1931
      3 C          22.5051    8.2875   39.8560 C.ar    1  UNL1        0.0640
      4 C          23.2206    7.8182   37.5600 C.ar    1  UNL1        0.0288
      5 C          23.2896    9.4029   39.6470 C.ar    1  UNL1        0.1392
      6 C          21.8581    8.1373   41.1376 C.ar    1  UNL1       -0.0474
      7 C          23.8032    8.7797   37.6085 C.ar    1  UNL1        0.1427
      8 O          23.9093    9.5544   38.4153 O.2     1  UNL1       -0.4545
      9 C          23.4612   10.3746   40.6979 C.ar    1  UNL1       -0.0186
     10 C          22.0277    9.0836   42.1453 C.ar    1  UNL1       -0.0609
     11 C          24.5481    9.2290   36.3848 C.ar    1  UNL1        0.0588
     12 C          22.8299   10.2001   41.9265 C.ar    1  UNL1       -0.0582
     13 C          25.8746    8.8172   36.1402 C.ar    1  UNL1        0.1275
     14 C          23.9352   10.1233   35.4895 C.ar    1  UNL1       -0.0476
     15 O          26.5116    7.9442   36.9734 O.3     1  UNL1       -0.5061
     16 C          26.5626    9.3088   35.0315 C.ar    1  UNL1       -0.0195
     17 C          24.6333   10.5983   34.3810 C.ar    1  UNL1       -0.0609
     18 C          25.9460   10.1965   34.1545 C.ar    1  UNL1       -0.0583
     19 H          23.1935    7.1729   36.6860 H       1  UNL1        0.0693
     20 H          21.2295    7.2659   41.3083 H       1  UNL1        0.0626
     21 H          24.0894   11.2450   40.5267 H       1  UNL1        0.0654
     22 H          21.5326    8.9493   43.1041 H       1  UNL1        0.0618
     23 H          22.9635   10.9362   42.7152 H       1  UNL1        0.0619
     24 H          22.9137   10.4560   35.6570 H       1  UNL1        0.0626
     25 H          26.0464    7.9338   37.8315 H       1  UNL1        0.2922
     26 H          27.5885    8.9968   34.8484 H       1  UNL1        0.0654
     27 H          24.1526   11.2912   33.6943 H       1  UNL1        0.0618
     28 H          26.4905   10.5747   33.2927 H       1  UNL1        0.0619
@<TRIPOS>BOND
     1     1     2    2
     2     2     3   ar
     3     2     4   ar
     4     3     5   ar
     5     3     6   ar
     6     4     7   ar
     7     5     8   ar
     8     5     9   ar
     9     6    10   ar
    10     7    11    1
    11     9    12   ar
    12    11    13   ar
    13    11    14   ar
    14    13    15    1
    15    13    16   ar
    16    14    17   ar
    17    16    18   ar
    18     7     8   ar
    19    10    12   ar
    20    17    18   ar
    21     4    19    1
    22     6    20    1
    23     9    21    1
    24    10    22    1
    25    12    23    1
    26    14    24    1
    27    15    25    1
    28    16    26    1
    29    17    27    1
    30    18    28    1
@<TRIPOS>SUBSTRUCTURE
     1 UNL1        1 TEMP              0 ****  ****    0 ROOT


##########                                Name:                  23
##########                DOCK_Rotatable_Bonds:                   2
##########                         Heavy_Atoms:                   8
##########                    Molecular_Weight:             110.112
##########                       Formal_Charge:                   0
##########                     HBond_Acceptors:                   2
##########                        HBond_Donors:                   2
##########                    Descriptor_Score:           38.083923
##########          Footprint_Similarity_Score:           10.756639
##########                 desc_FPS_vdw_energy:          -17.264200
##########                  desc_FPS_es_energy:           -1.895737
##########              desc_FPS_vdw+es_energy:          -19.159937
##########                  desc_FPS_num_hbond:                   2
##########                    desc_FPS_vdw_fps:            8.272101
##########                     desc_FPS_es_fps:            2.484538
##########                     desc_FPS_hb_fps:            1.414214
##########              desc_FPS_vdw_fp_numres:                 219
##########               desc_FPS_es_fp_numres:                 219
##########               desc_FPS_hb_fp_numres:                 219
##########                 Pharmacophore_Score:           20.000000
##########              desc_FMS_num_match_tot:                   0
##########              desc_FMS_max_match_ref:                  10
##########              desc_FMS_max_match_mol:                   5
##########                 desc_FMS_match_rate:            4.000000
##########                desc_FMS_match_resid:            0.000000
##########    desc_FMS_num_hydrophobic_matched:                   0
##########          desc_FMS_num_donor_matched:                   0
##########       desc_FMS_num_acceptor_matched:                   0
##########       desc_FMS_num_aromatic_matched:                   0
##########       desc_FMS_num_positive_matched:                   0
##########       desc_FMS_num_negative_matched:                   0
##########           desc_FMS_num_ring_matched:                   0
########## Hungarian_Matching_Similarity_Score:            7.327286
##########       desc_HMS_num_unmtchd_hvy_atms:                  17
##########           desc_HMS_num_ref_hvy_atms:                  23
##########        desc_HMS_rmsd_mtchd_hvy_atms:            8.631634
##########               Property_Volume_Score:            0.000000
##########               desc_VOS_geometric_vo:            0.000000
##########                desc_VOS_hvy_atom_vo:            0.000000
##########            desc_VOS_pos_chrg_atm_vo:            0.000000
##########            desc_VOS_neg_chrg_atm_vo:            0.000000
##########         desc_VOS_hydrophobic_atm_vo:            0.000000
##########         desc_VOS_hydrophilic_atm_vo:            0.000000
##########           Internal_energy_repulsive:            0.081126

@<TRIPOS>MOLECULE
23
 14 14 1 0 0
SMALL
GASTEIGER


@<TRIPOS>ATOM
      1 O          21.2544    7.4759   42.6436 O.3     1  UNL1       -0.5068
      2 C          21.8833    8.2438   41.7113 C.ar    1  UNL1        0.1171
      3 C          22.3964    9.4931   42.0604 C.ar    1  UNL1       -0.0167
      4 C          22.0140    7.7756   40.4048 C.ar    1  UNL1       -0.0167
      5 C          23.0425   10.2723   41.1028 C.ar    1  UNL1       -0.0167
      6 C          22.6600    8.5548   39.4474 C.ar    1  UNL1       -0.0167
      7 C          23.1751    9.8022   39.7962 C.ar    1  UNL1        0.1171
      8 O          23.8088   10.5579   38.8572 O.3     1  UNL1       -0.5068
      9 H          21.0080    6.6186   42.2542 H       1  UNL1        0.2921
     10 H          22.2959    9.8640   43.0775 H       1  UNL1        0.0655
     11 H          21.6141    6.8024   40.1309 H       1  UNL1        0.0655
     12 H          23.4410   11.2451   41.3803 H       1  UNL1        0.0655
     13 H          22.7623    8.1873   38.4291 H       1  UNL1        0.0655
     14 H          23.7555   10.1195   37.9899 H       1  UNL1        0.2921
@<TRIPOS>BOND
     1     1     2    1
     2     2     3   ar
     3     2     4   ar
     4     3     5   ar
     5     4     6   ar
     6     5     7   ar
     7     7     8    1
     8     6     7   ar
     9     1     9    1
    10     3    10    1
    11     4    11    1
    12     5    12    1
    13     6    13    1
    14     8    14    1
@<TRIPOS>SUBSTRUCTURE
     1 UNL1        1 TEMP              0 ****  ****    0 ROOT


##########                                Name:                  23
##########                DOCK_Rotatable_Bonds:                   2
##########                         Heavy_Atoms:                   8
##########                    Molecular_Weight:             110.112
##########                       Formal_Charge:                   0
##########                     HBond_Acceptors:                   2
##########                        HBond_Donors:                   2
##########                    Descriptor_Score:           38.036106
##########          Footprint_Similarity_Score:           10.712065
##########                 desc_FPS_vdw_energy:          -17.150677
##########                  desc_FPS_es_energy:           -1.934100
##########              desc_FPS_vdw+es_energy:          -19.084776
##########                  desc_FPS_num_hbond:                   2
##########                    desc_FPS_vdw_fps:            8.198546
##########                     desc_FPS_es_fps:            2.513519
##########                     desc_FPS_hb_fps:            1.414214
##########              desc_FPS_vdw_fp_numres:                 219
##########               desc_FPS_es_fp_numres:                 219
##########               desc_FPS_hb_fp_numres:                 219
##########                 Pharmacophore_Score:           20.000000
##########              desc_FMS_num_match_tot:                   0
##########              desc_FMS_max_match_ref:                  10
##########              desc_FMS_max_match_mol:                   5
##########                 desc_FMS_match_rate:            4.000000
##########                desc_FMS_match_resid:            0.000000
##########    desc_FMS_num_hydrophobic_matched:                   0
##########          desc_FMS_num_donor_matched:                   0
##########       desc_FMS_num_acceptor_matched:                   0
##########       desc_FMS_num_aromatic_matched:                   0
##########       desc_FMS_num_positive_matched:                   0
##########       desc_FMS_num_negative_matched:                   0
##########           desc_FMS_num_ring_matched:                   0
########## Hungarian_Matching_Similarity_Score:            7.324042
##########       desc_HMS_num_unmtchd_hvy_atms:                  17
##########           desc_HMS_num_ref_hvy_atms:                  23
##########        desc_HMS_rmsd_mtchd_hvy_atms:            8.628390
##########               Property_Volume_Score:            0.000000
##########               desc_VOS_geometric_vo:            0.000000
##########                desc_VOS_hvy_atom_vo:            0.000000
##########            desc_VOS_pos_chrg_atm_vo:            0.000000
##########            desc_VOS_neg_chrg_atm_vo:            0.000000
##########         desc_VOS_hydrophobic_atm_vo:            0.000000
##########         desc_VOS_hydrophilic_atm_vo:            0.000000
##########           Internal_energy_repulsive:            0.081123

@<TRIPOS>MOLECULE
23
 14 14 1 0 0
SMALL
GASTEIGER


@<TRIPOS>ATOM
      1 O          21.2047    7.4701   42.6795 O.3     1  UNL1       -0.5068
      2 C          21.8729    8.2313   41.7694 C.ar    1  UNL1        0.1171
      3 C          22.0352    7.7795   40.4596 C.ar    1  UNL1       -0.0167
      4 C          22.3940    9.4665   42.1514 C.ar    1  UNL1       -0.0167
      5 C          22.7165    8.5650   39.5320 C.ar    1  UNL1       -0.0167
      6 C          23.0752   10.2518   41.2239 C.ar    1  UNL1       -0.0167
      7 C          23.2356    9.8019   39.9143 C.ar    1  UNL1        0.1171
      8 O          23.8991   10.5754   39.0110 O.3     1  UNL1       -0.5068
      9 H          20.9831    6.6065   42.2891 H       1  UNL1        0.2921
     10 H          21.6323    6.8162   40.1565 H       1  UNL1        0.0655
     11 H          22.2689    9.8198   43.1721 H       1  UNL1        0.0655
     12 H          22.8398    8.2083   38.5123 H       1  UNL1        0.0655
     13 H          23.4796   11.2157   41.5234 H       1  UNL1        0.0655
     14 H          23.9246   10.1264   38.1479 H       1  UNL1        0.2921
@<TRIPOS>BOND
     1     1     2    1
     2     2     3   ar
     3     2     4   ar
     4     3     5   ar
     5     4     6   ar
     6     5     7   ar
     7     7     8    1
     8     6     7   ar
     9     1     9    1
    10     3    10    1
    11     4    11    1
    12     5    12    1
    13     6    13    1
    14     8    14    1
@<TRIPOS>SUBSTRUCTURE
     1 UNL1        1 TEMP              0 ****  ****    0 ROOT


##########                                Name:                  23
##########                DOCK_Rotatable_Bonds:                   2
##########                         Heavy_Atoms:                   8
##########                    Molecular_Weight:             110.112
##########                       Formal_Charge:                   0
##########                     HBond_Acceptors:                   2
##########                        HBond_Donors:                   2
##########                    Descriptor_Score:           38.112698
##########          Footprint_Similarity_Score:           10.791359
##########                 desc_FPS_vdw_energy:          -17.398396
##########                  desc_FPS_es_energy:           -1.935992
##########              desc_FPS_vdw+es_energy:          -19.334387
##########                  desc_FPS_num_hbond:                   2
##########                    desc_FPS_vdw_fps:            8.243185
##########                     desc_FPS_es_fps:            2.548174
##########                     desc_FPS_hb_fps:            1.414214
##########              desc_FPS_vdw_fp_numres:                 219
##########               desc_FPS_es_fp_numres:                 219
##########               desc_FPS_hb_fp_numres:                 219
##########                 Pharmacophore_Score:           20.000000
##########              desc_FMS_num_match_tot:                   0
##########              desc_FMS_max_match_ref:                  10
##########              desc_FMS_max_match_mol:                   5
##########                 desc_FMS_match_rate:            4.000000
##########                desc_FMS_match_resid:            0.000000
##########    desc_FMS_num_hydrophobic_matched:                   0
##########          desc_FMS_num_donor_matched:                   0
##########       desc_FMS_num_acceptor_matched:                   0
##########       desc_FMS_num_aromatic_matched:                   0
##########       desc_FMS_num_positive_matched:                   0
##########       desc_FMS_num_negative_matched:                   0
##########           desc_FMS_num_ring_matched:                   0
########## Hungarian_Matching_Similarity_Score:            7.321339
##########       desc_HMS_num_unmtchd_hvy_atms:                  17
##########           desc_HMS_num_ref_hvy_atms:                  23
##########        desc_HMS_rmsd_mtchd_hvy_atms:            8.625687
##########               Property_Volume_Score:            0.000000
##########               desc_VOS_geometric_vo:            0.000000
##########                desc_VOS_hvy_atom_vo:            0.000000
##########            desc_VOS_pos_chrg_atm_vo:            0.000000
##########            desc_VOS_neg_chrg_atm_vo:            0.000000
##########         desc_VOS_hydrophobic_atm_vo:            0.000000
##########         desc_VOS_hydrophilic_atm_vo:            0.000000
##########           Internal_energy_repulsive:            0.081126

@<TRIPOS>MOLECULE
23
 14 14 1 0 0
SMALL
GASTEIGER


@<TRIPOS>ATOM
      1 O          21.2161    7.4643   42.6687 O.3     1  UNL1       -0.5068
      2 C          21.8743    8.2323   41.7570 C.ar    1  UNL1        0.1171
      3 C          22.0765    7.7635   40.4589 C.ar    1  UNL1       -0.0167
      4 C          22.3449    9.4916   42.1258 C.ar    1  UNL1       -0.0167
      5 C          22.7472    8.5560   39.5294 C.ar    1  UNL1       -0.0167
      6 C          23.0155   10.2839   41.1965 C.ar    1  UNL1       -0.0167
      7 C          23.2157    9.8170   39.8984 C.ar    1  UNL1        0.1171
      8 O          23.8686   10.5972   38.9932 O.3     1  UNL1       -0.5068
      9 H          21.0299    6.5875   42.2894 H       1  UNL1        0.2921
     10 H          21.7131    6.7815   40.1661 H       1  UNL1        0.0655
     11 H          22.1886    9.8582   43.1374 H       1  UNL1        0.0655
     12 H          22.9018    8.1860   38.5188 H       1  UNL1        0.0655
     13 H          23.3805   11.2665   41.4856 H       1  UNL1        0.0655
     14 H          24.0925   11.4541   39.3968 H       1  UNL1        0.2921
@<TRIPOS>BOND
     1     1     2    1
     2     2     3   ar
     3     2     4   ar
     4     3     5   ar
     5     4     6   ar
     6     5     7   ar
     7     7     8    1
     8     6     7   ar
     9     1     9    1
    10     3    10    1
    11     4    11    1
    12     5    12    1
    13     6    13    1
    14     8    14    1
@<TRIPOS>SUBSTRUCTURE
     1 UNL1        1 TEMP              0 ****  ****    0 ROOT


##########                                Name:                  24
##########                DOCK_Rotatable_Bonds:                   1
##########                         Heavy_Atoms:                  17
##########                    Molecular_Weight:             246.338
##########                       Formal_Charge:                   0
##########                     HBond_Acceptors:                   4
##########                        HBond_Donors:                   0
##########                    Descriptor_Score:           41.543297
##########          Footprint_Similarity_Score:           13.178823
##########                 desc_FPS_vdw_energy:          -28.150124
##########                  desc_FPS_es_energy:            0.000000
##########              desc_FPS_vdw+es_energy:          -28.150124
##########                  desc_FPS_num_hbond:                   0
##########                    desc_FPS_vdw_fps:           11.374141
##########                     desc_FPS_es_fps:            1.804682
##########                     desc_FPS_hb_fps:            0.000000
##########              desc_FPS_vdw_fp_numres:                 219
##########               desc_FPS_es_fp_numres:                 219
##########               desc_FPS_hb_fp_numres:                 219
##########                 Pharmacophore_Score:           20.000000
##########              desc_FMS_num_match_tot:                   0
##########              desc_FMS_max_match_ref:                  10
##########              desc_FMS_max_match_mol:                   8
##########                 desc_FMS_match_rate:            4.000000
##########                desc_FMS_match_resid:            0.000000
##########    desc_FMS_num_hydrophobic_matched:                   0
##########          desc_FMS_num_donor_matched:                   0
##########       desc_FMS_num_acceptor_matched:                   0
##########       desc_FMS_num_aromatic_matched:                   0
##########       desc_FMS_num_positive_matched:                   0
##########       desc_FMS_num_negative_matched:                   0
##########           desc_FMS_num_ring_matched:                   0
########## Hungarian_Matching_Similarity_Score:            8.364477
##########       desc_HMS_num_unmtchd_hvy_atms:                  18
##########           desc_HMS_num_ref_hvy_atms:                  23
##########        desc_HMS_rmsd_mtchd_hvy_atms:            9.451434
##########               Property_Volume_Score:            0.000000
##########               desc_VOS_geometric_vo:            0.000000
##########                desc_VOS_hvy_atom_vo:            0.000000
##########            desc_VOS_pos_chrg_atm_vo:            0.000000
##########            desc_VOS_neg_chrg_atm_vo:            0.000000
##########         desc_VOS_hydrophobic_atm_vo:            0.000000
##########         desc_VOS_hydrophilic_atm_vo:            0.000000
##########           Internal_energy_repulsive:            6.379700

@<TRIPOS>MOLECULE
24
 31 32 1 0 0
SMALL
GASTEIGER


@<TRIPOS>ATOM
      1 SI         23.4060    7.9985   36.9247 Si      1  UNL1        0.0000
      2 O          23.4722    8.5897   37.8921 O.2     1  UNL1        0.0000
      3 C          23.9802    7.0342   37.2263 C.3     1  UNL1        0.0000
      4 C          23.9553    8.7171   36.1945 C.3     1  UNL1        0.0000
      5 C          22.2558    7.8944   36.7894 C.3     1  UNL1        0.0000
      6 C          23.2589    9.3953   39.0012 C.2     1  UNL1        0.0000
      7 C          23.6430   10.8133   38.9479 C.2     1  UNL1        0.0000
      8 C          22.7386    8.8160   40.1324 C.2     1  UNL1        0.0000
      9 O          24.0990   11.3270   37.9445 O.2     1  UNL1        0.0000
     10 C          23.4649   11.5958   40.2194 C.ar    1  UNL1        0.0000
     11 C          22.5408    9.5527   41.3812 C.2     1  UNL1        0.0000
     12 C          22.9466   10.9943   41.3773 C.ar    1  UNL1        0.0000
     13 C          23.8309   12.9468   40.2563 C.ar    1  UNL1        0.0000
     14 O          22.0884    9.0179   42.3746 O.2     1  UNL1        0.0000
     15 C          22.8155   11.7494   42.5491 C.ar    1  UNL1        0.0000
     16 C          23.6968   13.6888   41.4272 C.ar    1  UNL1        0.0000
     17 C          23.1923   13.0888   42.5755 C.ar    1  UNL1        0.0000
     18 H          25.0514    7.0607   37.4984 H       1  UNL1        0.0000
     19 H          24.0060    6.3411   36.3668 H       1  UNL1        0.0000
     20 H          23.5974    6.3627   38.0166 H       1  UNL1        0.0000
     21 H          25.0231    8.9702   36.3294 H       1  UNL1        0.0000
     22 H          23.5482    9.7190   35.9657 H       1  UNL1        0.0000
     23 H          23.9756    8.2727   35.1844 H       1  UNL1        0.0000
     24 H          21.6457    7.3450   37.5299 H       1  UNL1        0.0000
     25 H          22.0289    7.3284   35.8705 H       1  UNL1        0.0000
     26 H          21.6213    8.7878   36.6427 H       1  UNL1        0.0000
     27 H          22.4637    7.7662   40.1583 H       1  UNL1        0.0000
     28 H          24.2310   13.4348   39.3708 H       1  UNL1        0.0000
     29 H          22.4241   11.2964   43.4565 H       1  UNL1        0.0000
     30 H          23.9907   14.7352   41.4459 H       1  UNL1        0.0000
     31 H          23.0922   13.6637   43.4928 H       1  UNL1        0.0000
@<TRIPOS>BOND
     1     1     2    1
     2     1     3    1
     3     1     4    1
     4     1     5    1
     5     2     6    1
     6     6     7    1
     7     6     8    2
     8     7     9    2
     9     7    10    1
    10     8    11    1
    11    10    12   ar
    12    10    13   ar
    13    11    14    2
    14    12    15   ar
    15    13    16   ar
    16    15    17   ar
    17    11    12    1
    18    16    17   ar
    19     3    18    1
    20     3    19    1
    21     3    20    1
    22     4    21    1
    23     4    22    1
    24     4    23    1
    25     5    24    1
    26     5    25    1
    27     5    26    1
    28     8    27    1
    29    13    28    1
    30    15    29    1
    31    16    30    1
    32    17    31    1
@<TRIPOS>SUBSTRUCTURE
     1 UNL1        1 TEMP              0 ****  ****    0 ROOT


##########                                Name:                  24
##########                DOCK_Rotatable_Bonds:                   1
##########                         Heavy_Atoms:                  17
##########                    Molecular_Weight:             246.338
##########                       Formal_Charge:                   0
##########                     HBond_Acceptors:                   4
##########                        HBond_Donors:                   0
##########                    Descriptor_Score:           41.325573
##########          Footprint_Similarity_Score:           13.111779
##########                 desc_FPS_vdw_energy:          -27.530735
##########                  desc_FPS_es_energy:            0.000000
##########              desc_FPS_vdw+es_energy:          -27.530735
##########                  desc_FPS_num_hbond:                   0
##########                    desc_FPS_vdw_fps:           11.307097
##########                     desc_FPS_es_fps:            1.804682
##########                     desc_FPS_hb_fps:            0.000000
##########              desc_FPS_vdw_fp_numres:                 219
##########               desc_FPS_es_fp_numres:                 219
##########               desc_FPS_hb_fp_numres:                 219
##########                 Pharmacophore_Score:           20.000000
##########              desc_FMS_num_match_tot:                   0
##########              desc_FMS_max_match_ref:                  10
##########              desc_FMS_max_match_mol:                   8
##########                 desc_FMS_match_rate:            4.000000
##########                desc_FMS_match_resid:            0.000000
##########    desc_FMS_num_hydrophobic_matched:                   0
##########          desc_FMS_num_donor_matched:                   0
##########       desc_FMS_num_acceptor_matched:                   0
##########       desc_FMS_num_aromatic_matched:                   0
##########       desc_FMS_num_positive_matched:                   0
##########       desc_FMS_num_negative_matched:                   0
##########           desc_FMS_num_ring_matched:                   0
########## Hungarian_Matching_Similarity_Score:            8.213794
##########       desc_HMS_num_unmtchd_hvy_atms:                  18
##########           desc_HMS_num_ref_hvy_atms:                  23
##########        desc_HMS_rmsd_mtchd_hvy_atms:            9.300750
##########               Property_Volume_Score:            0.000000
##########               desc_VOS_geometric_vo:            0.000000
##########                desc_VOS_hvy_atom_vo:            0.000000
##########            desc_VOS_pos_chrg_atm_vo:            0.000000
##########            desc_VOS_neg_chrg_atm_vo:            0.000000
##########         desc_VOS_hydrophobic_atm_vo:            0.000000
##########         desc_VOS_hydrophilic_atm_vo:            0.000000
##########           Internal_energy_repulsive:           11.736182

@<TRIPOS>MOLECULE
24
 31 32 1 0 0
SMALL
GASTEIGER


@<TRIPOS>ATOM
      1 SI         23.1653    7.7466   37.3880 Si      1  UNL1        0.0000
      2 O          23.0116    8.3348   38.3472 O.2     1  UNL1        0.0000
      3 C          22.2752    7.0022   37.4512 C.3     1  UNL1        0.0000
      4 C          24.2227    7.3012   37.5750 C.3     1  UNL1        0.0000
      5 C          23.0847    8.5818   36.5829 C.3     1  UNL1        0.0000
      6 C          22.9119    9.2972   39.3414 C.2     1  UNL1        0.0000
      7 C          23.3817   10.6639   39.0727 C.2     1  UNL1        0.0000
      8 C          22.4196    8.9157   40.5654 C.2     1  UNL1        0.0000
      9 O          23.8129   11.0025   37.9872 O.2     1  UNL1        0.0000
     10 C          23.3246   11.6232   40.2291 C.ar    1  UNL1        0.0000
     11 C          22.3388    9.8281   41.7067 C.2     1  UNL1        0.0000
     12 C          22.8344   11.2233   41.4824 C.ar    1  UNL1        0.0000
     13 C          23.7771   12.9374   40.0597 C.ar    1  UNL1        0.0000
     14 O          21.9093    9.4670   42.7850 O.2     1  UNL1        0.0000
     15 C          22.8168   12.1386   42.5419 C.ar    1  UNL1        0.0000
     16 C          23.7557   13.8398   41.1203 C.ar    1  UNL1        0.0000
     17 C          23.2787   13.4392   42.3633 C.ar    1  UNL1        0.0000
     18 H          22.2034    6.2547   38.2627 H       1  UNL1        0.0000
     19 H          22.2890    6.3410   36.5666 H       1  UNL1        0.0000
     20 H          21.2285    7.3566   37.4229 H       1  UNL1        0.0000
     21 H          24.4120    6.5948   38.4042 H       1  UNL1        0.0000
     22 H          25.1081    7.9554   37.6744 H       1  UNL1        0.0000
     23 H          24.5229    6.6865   36.7088 H       1  UNL1        0.0000
     24 H          22.1465    9.1512   36.4495 H       1  UNL1        0.0000
     25 H          23.2151    8.1544   35.5746 H       1  UNL1        0.0000
     26 H          23.8175    9.4090   36.5520 H       1  UNL1        0.0000
     27 H          22.0805    7.9013   40.7506 H       1  UNL1        0.0000
     28 H          24.1575   13.2706   39.0971 H       1  UNL1        0.0000
     29 H          22.4485   11.8424   43.5209 H       1  UNL1        0.0000
     30 H          24.1159   14.8556   40.9788 H       1  UNL1        0.0000
     31 H          23.2665   14.1394   43.1948 H       1  UNL1        0.0000
@<TRIPOS>BOND
     1     1     2    1
     2     1     3    1
     3     1     4    1
     4     1     5    1
     5     2     6    1
     6     6     7    1
     7     6     8    2
     8     7     9    2
     9     7    10    1
    10     8    11    1
    11    10    12   ar
    12    10    13   ar
    13    11    14    2
    14    12    15   ar
    15    13    16   ar
    16    15    17   ar
    17    11    12    1
    18    16    17   ar
    19     3    18    1
    20     3    19    1
    21     3    20    1
    22     4    21    1
    23     4    22    1
    24     4    23    1
    25     5    24    1
    26     5    25    1
    27     5    26    1
    28     8    27    1
    29    13    28    1
    30    15    29    1
    31    16    30    1
    32    17    31    1
@<TRIPOS>SUBSTRUCTURE
     1 UNL1        1 TEMP              0 ****  ****    0 ROOT


##########                                Name:                  24
##########                DOCK_Rotatable_Bonds:                   1
##########                         Heavy_Atoms:                  17
##########                    Molecular_Weight:             246.338
##########                       Formal_Charge:                   0
##########                     HBond_Acceptors:                   4
##########                        HBond_Donors:                   0
##########                    Descriptor_Score:           40.896973
##########          Footprint_Similarity_Score:           12.245204
##########                 desc_FPS_vdw_energy:          -27.819382
##########                  desc_FPS_es_energy:            0.000000
##########              desc_FPS_vdw+es_energy:          -27.819382
##########                  desc_FPS_num_hbond:                   0
##########                    desc_FPS_vdw_fps:           10.440522
##########                     desc_FPS_es_fps:            1.804682
##########                     desc_FPS_hb_fps:            0.000000
##########              desc_FPS_vdw_fp_numres:                 219
##########               desc_FPS_es_fp_numres:                 219
##########               desc_FPS_hb_fp_numres:                 219
##########                 Pharmacophore_Score:           20.000000
##########              desc_FMS_num_match_tot:                   0
##########              desc_FMS_max_match_ref:                  10
##########              desc_FMS_max_match_mol:                   8
##########                 desc_FMS_match_rate:            4.000000
##########                desc_FMS_match_resid:            0.000000
##########    desc_FMS_num_hydrophobic_matched:                   0
##########          desc_FMS_num_donor_matched:                   0
##########       desc_FMS_num_acceptor_matched:                   0
##########       desc_FMS_num_aromatic_matched:                   0
##########       desc_FMS_num_positive_matched:                   0
##########       desc_FMS_num_negative_matched:                   0
##########           desc_FMS_num_ring_matched:                   0
########## Hungarian_Matching_Similarity_Score:            8.651767
##########       desc_HMS_num_unmtchd_hvy_atms:                  18
##########           desc_HMS_num_ref_hvy_atms:                  23
##########        desc_HMS_rmsd_mtchd_hvy_atms:            9.738723
##########               Property_Volume_Score:            0.000000
##########               desc_VOS_geometric_vo:            0.000000
##########                desc_VOS_hvy_atom_vo:            0.000000
##########            desc_VOS_pos_chrg_atm_vo:            0.000000
##########            desc_VOS_neg_chrg_atm_vo:            0.000000
##########         desc_VOS_hydrophobic_atm_vo:            0.000000
##########         desc_VOS_hydrophilic_atm_vo:            0.000000
##########           Internal_energy_repulsive:           12.094264

@<TRIPOS>MOLECULE
24
 31 32 1 0 0
SMALL
GASTEIGER


@<TRIPOS>ATOM
      1 SI         22.8511   13.6310   42.4343 Si      1  UNL1        0.0000
      2 O          22.7925   12.5463   42.1030 O.2     1  UNL1        0.0000
      3 C          23.2332   13.4993   43.5239 C.3     1  UNL1        0.0000
      4 C          21.7409   13.9538   42.3139 C.3     1  UNL1        0.0000
      5 C          23.6092   14.0710   41.6702 C.3     1  UNL1        0.0000
      6 C          22.8277   11.3359   41.4261 C.2     1  UNL1        0.0000
      7 C          23.2543   11.3078   40.0196 C.2     1  UNL1        0.0000
      8 C          22.4094   10.2094   42.0907 C.2     1  UNL1        0.0000
      9 O          23.6294   12.3047   39.4329 O.2     1  UNL1        0.0000
     10 C          23.1771    9.9735   39.3308 C.ar    1  UNL1        0.0000
     11 C          22.3350    8.8944   41.4531 C.2     1  UNL1        0.0000
     12 C          22.7342    8.8281   40.0112 C.ar    1  UNL1        0.0000
     13 C          23.5430    9.8693   37.9832 C.ar    1  UNL1        0.0000
     14 O          21.9517    7.9115   42.0568 O.2     1  UNL1        0.0000
     15 C          22.6549    7.6071   39.3305 C.ar    1  UNL1        0.0000
     16 C          23.4599    8.6501   37.3154 C.ar    1  UNL1        0.0000
     17 C          23.0120    7.5188   37.9883 C.ar    1  UNL1        0.0000
     18 H          22.6300   12.9760   44.2885 H       1  UNL1        0.0000
     19 H          23.3413   14.4923   43.9951 H       1  UNL1        0.0000
     20 H          24.2282   13.0659   43.7339 H       1  UNL1        0.0000
     21 H          20.9375   13.4900   42.9156 H       1  UNL1        0.0000
     22 H          21.2544   13.9659   41.3215 H       1  UNL1        0.0000
     23 H          21.6304   15.0126   42.6051 H       1  UNL1        0.0000
     24 H          24.6511   13.7032   41.6301 H       1  UNL1        0.0000
     25 H          23.7736   15.1432   41.8692 H       1  UNL1        0.0000
     26 H          23.3727   14.0960   40.5905 H       1  UNL1        0.0000
     27 H          22.0927   10.2463   43.1284 H       1  UNL1        0.0000
     28 H          23.8925   10.7421   37.4370 H       1  UNL1        0.0000
     29 H          22.3058    6.7127   39.8405 H       1  UNL1        0.0000
     30 H          23.7402    8.5826   36.2673 H       1  UNL1        0.0000
     31 H          22.9401    6.5670   37.4681 H       1  UNL1        0.0000
@<TRIPOS>BOND
     1     1     2    1
     2     1     3    1
     3     1     4    1
     4     1     5    1
     5     2     6    1
     6     6     7    1
     7     6     8    2
     8     7     9    2
     9     7    10    1
    10     8    11    1
    11    10    12   ar
    12    10    13   ar
    13    11    14    2
    14    12    15   ar
    15    13    16   ar
    16    15    17   ar
    17    11    12    1
    18    16    17   ar
    19     3    18    1
    20     3    19    1
    21     3    20    1
    22     4    21    1
    23     4    22    1
    24     4    23    1
    25     5    24    1
    26     5    25    1
    27     5    26    1
    28     8    27    1
    29    13    28    1
    30    15    29    1
    31    16    30    1
    32    17    31    1
@<TRIPOS>SUBSTRUCTURE
     1 UNL1        1 TEMP              0 ****  ****    0 ROOT


##########                                Name:                  25
##########                DOCK_Rotatable_Bonds:                   3
##########                         Heavy_Atoms:                  11
##########                    Molecular_Weight:              152.15
##########                       Formal_Charge:        -0.000100017
##########                     HBond_Acceptors:                   3
##########                        HBond_Donors:                   1
##########                    Descriptor_Score:           39.608284
##########          Footprint_Similarity_Score:           11.649537
##########                 desc_FPS_vdw_energy:          -22.760862
##########                  desc_FPS_es_energy:           -0.463896
##########              desc_FPS_vdw+es_energy:          -23.224758
##########                  desc_FPS_num_hbond:                   2
##########                    desc_FPS_vdw_fps:            9.664474
##########                     desc_FPS_es_fps:            1.985063
##########                     desc_FPS_hb_fps:            1.414214
##########              desc_FPS_vdw_fp_numres:                 219
##########               desc_FPS_es_fp_numres:                 219
##########               desc_FPS_hb_fp_numres:                 219
##########                 Pharmacophore_Score:           20.000000
##########              desc_FMS_num_match_tot:                   0
##########              desc_FMS_max_match_ref:                  10
##########              desc_FMS_max_match_mol:                   5
##########                 desc_FMS_match_rate:            4.000000
##########                desc_FMS_match_resid:            0.000000
##########    desc_FMS_num_hydrophobic_matched:                   0
##########          desc_FMS_num_donor_matched:                   0
##########       desc_FMS_num_acceptor_matched:                   0
##########       desc_FMS_num_aromatic_matched:                   0
##########       desc_FMS_num_positive_matched:                   0
##########       desc_FMS_num_negative_matched:                   0
##########           desc_FMS_num_ring_matched:                   0
########## Hungarian_Matching_Similarity_Score:            7.958746
##########       desc_HMS_num_unmtchd_hvy_atms:                  14
##########           desc_HMS_num_ref_hvy_atms:                  23
##########        desc_HMS_rmsd_mtchd_hvy_atms:            9.915268
##########               Property_Volume_Score:            0.000000
##########               desc_VOS_geometric_vo:            0.000000
##########                desc_VOS_hvy_atom_vo:            0.000000
##########            desc_VOS_pos_chrg_atm_vo:            0.000000
##########            desc_VOS_neg_chrg_atm_vo:            0.000000
##########         desc_VOS_hydrophobic_atm_vo:            0.000000
##########         desc_VOS_hydrophilic_atm_vo:            0.000000
##########           Internal_energy_repulsive:            2.156441

@<TRIPOS>MOLECULE
25
 19 19 1 0 0
SMALL
GASTEIGER


@<TRIPOS>ATOM
      1 O          21.9814    6.6087   38.7613 O.2     1  UNL1       -0.2450
      2 C          22.4303    7.7378   38.6939 C.2     1  UNL1        0.3389
      3 O          22.8460    8.2903   37.5301 O.3     1  UNL1       -0.4645
      4 C          22.5363    8.6276   39.9006 C.ar    1  UNL1        0.0592
      5 C          22.6350    7.5723   36.2905 C.3     1  UNL1        0.0820
      6 C          23.0898    9.9069   39.7787 C.ar    1  UNL1       -0.0443
      7 C          22.0856    8.2007   41.1554 C.ar    1  UNL1       -0.0443
      8 C          23.1961   10.7417   40.8903 C.ar    1  UNL1       -0.0194
      9 C          22.1840    9.0388   42.2643 C.ar    1  UNL1       -0.0194
     10 C          22.7412   10.3092   42.1334 C.ar    1  UNL1        0.1169
     11 O          22.8381   11.1206   43.2237 O.3     1  UNL1       -0.5068
     12 H          22.8910    8.2275   35.4540 H       1  UNL1        0.0661
     13 H          21.5860    7.2720   36.2101 H       1  UNL1        0.0661
     14 H          23.2768    6.6870   36.2737 H       1  UNL1        0.0661
     15 H          23.4500   10.2581   38.8153 H       1  UNL1        0.0627
     16 H          21.6456    7.2150   41.2788 H       1  UNL1        0.0627
     17 H          23.6356   11.7299   40.7793 H       1  UNL1        0.0654
     18 H          21.8237    8.6989   43.2324 H       1  UNL1        0.0654
     19 H          22.4570   10.6799   44.0042 H       1  UNL1        0.2921
@<TRIPOS>BOND
     1     1     2    2
     2     2     3    1
     3     2     4    1
     4     3     5    1
     5     4     6   ar
     6     4     7   ar
     7     6     8   ar
     8     7     9   ar
     9     8    10   ar
    10    10    11    1
    11     9    10   ar
    12     5    12    1
    13     5    13    1
    14     5    14    1
    15     6    15    1
    16     7    16    1
    17     8    17    1
    18     9    18    1
    19    11    19    1
@<TRIPOS>SUBSTRUCTURE
     1 UNL1        1 TEMP              0 ****  ****    0 ROOT


##########                                Name:                  25
##########                DOCK_Rotatable_Bonds:                   3
##########                         Heavy_Atoms:                  11
##########                    Molecular_Weight:              152.15
##########                       Formal_Charge:        -0.000100017
##########                     HBond_Acceptors:                   3
##########                        HBond_Donors:                   1
##########                    Descriptor_Score:           39.645363
##########          Footprint_Similarity_Score:           11.641805
##########                 desc_FPS_vdw_energy:          -21.680496
##########                  desc_FPS_es_energy:           -0.749456
##########              desc_FPS_vdw+es_energy:          -22.429953
##########                  desc_FPS_num_hbond:                   1
##########                    desc_FPS_vdw_fps:            9.540366
##########                     desc_FPS_es_fps:            2.101439
##########                     desc_FPS_hb_fps:            1.000000
##########              desc_FPS_vdw_fp_numres:                 219
##########               desc_FPS_es_fp_numres:                 219
##########               desc_FPS_hb_fp_numres:                 219
##########                 Pharmacophore_Score:           20.000000
##########              desc_FMS_num_match_tot:                   0
##########              desc_FMS_max_match_ref:                  10
##########              desc_FMS_max_match_mol:                   5
##########                 desc_FMS_match_rate:            4.000000
##########                desc_FMS_match_resid:            0.000000
##########    desc_FMS_num_hydrophobic_matched:                   0
##########          desc_FMS_num_donor_matched:                   0
##########       desc_FMS_num_acceptor_matched:                   0
##########       desc_FMS_num_aromatic_matched:                   0
##########       desc_FMS_num_positive_matched:                   0
##########       desc_FMS_num_negative_matched:                   0
##########           desc_FMS_num_ring_matched:                   0
########## Hungarian_Matching_Similarity_Score:            8.003558
##########       desc_HMS_num_unmtchd_hvy_atms:                  14
##########           desc_HMS_num_ref_hvy_atms:                  23
##########        desc_HMS_rmsd_mtchd_hvy_atms:            9.960080
##########               Property_Volume_Score:            0.000000
##########               desc_VOS_geometric_vo:            0.000000
##########                desc_VOS_hvy_atom_vo:            0.000000
##########            desc_VOS_pos_chrg_atm_vo:            0.000000
##########            desc_VOS_neg_chrg_atm_vo:            0.000000
##########         desc_VOS_hydrophobic_atm_vo:            0.000000
##########         desc_VOS_hydrophilic_atm_vo:            0.000000
##########           Internal_energy_repulsive:            2.068347

@<TRIPOS>MOLECULE
25
 19 19 1 0 0
SMALL
GASTEIGER


@<TRIPOS>ATOM
      1 O          21.6955    6.6638   38.6012 O.2     1  UNL1       -0.2450
      2 C          22.4046    7.6529   38.6013 C.2     1  UNL1        0.3389
      3 O          23.1268    8.0340   37.5217 O.3     1  UNL1       -0.4645
      4 C          22.5169    8.5538   39.7991 C.ar    1  UNL1        0.0592
      5 C          23.0367    7.2607   36.3008 C.3     1  UNL1        0.0820
      6 C          21.8342    8.2362   40.9785 C.ar    1  UNL1       -0.0443
      7 C          23.3002    9.7135   39.7606 C.ar    1  UNL1       -0.0443
      8 C          21.9279    9.0642   42.0963 C.ar    1  UNL1       -0.0194
      9 C          23.4005   10.5361   40.8810 C.ar    1  UNL1       -0.0194
     10 C          22.7128   10.2135   42.0492 C.ar    1  UNL1        0.1169
     11 O          22.8125   11.0257   43.1386 O.3     1  UNL1       -0.5068
     12 H          23.5597    7.7953   35.5039 H       1  UNL1        0.0661
     13 H          21.9869    7.1284   36.0227 H       1  UNL1        0.0661
     14 H          23.5049    6.2849   36.4576 H       1  UNL1        0.0661
     15 H          21.2169    7.3432   41.0302 H       1  UNL1        0.0627
     16 H          23.8465    9.9820   38.8608 H       1  UNL1        0.0627
     17 H          21.3848    8.8064   43.0022 H       1  UNL1        0.0654
     18 H          24.0180   11.4303   40.8414 H       1  UNL1        0.0654
     19 H          23.3187   11.8269   42.9140 H       1  UNL1        0.2921
@<TRIPOS>BOND
     1     1     2    2
     2     2     3    1
     3     2     4    1
     4     3     5    1
     5     4     6   ar
     6     4     7   ar
     7     6     8   ar
     8     7     9   ar
     9     8    10   ar
    10    10    11    1
    11     9    10   ar
    12     5    12    1
    13     5    13    1
    14     5    14    1
    15     6    15    1
    16     7    16    1
    17     8    17    1
    18     9    18    1
    19    11    19    1
@<TRIPOS>SUBSTRUCTURE
     1 UNL1        1 TEMP              0 ****  ****    0 ROOT


##########                                Name:                  25
##########                DOCK_Rotatable_Bonds:                   3
##########                         Heavy_Atoms:                  11
##########                    Molecular_Weight:              152.15
##########                       Formal_Charge:        -0.000100017
##########                     HBond_Acceptors:                   3
##########                        HBond_Donors:                   1
##########                    Descriptor_Score:           38.391193
##########          Footprint_Similarity_Score:           11.091176
##########                 desc_FPS_vdw_energy:          -22.151218
##########                  desc_FPS_es_energy:           -0.198073
##########              desc_FPS_vdw+es_energy:          -22.349291
##########                  desc_FPS_num_hbond:                   1
##########                    desc_FPS_vdw_fps:            8.973757
##########                     desc_FPS_es_fps:            2.117419
##########                     desc_FPS_hb_fps:            1.000000
##########              desc_FPS_vdw_fp_numres:                 219
##########               desc_FPS_es_fp_numres:                 219
##########               desc_FPS_hb_fp_numres:                 219
##########                 Pharmacophore_Score:           20.000000
##########              desc_FMS_num_match_tot:                   0
##########              desc_FMS_max_match_ref:                  10
##########              desc_FMS_max_match_mol:                   5
##########                 desc_FMS_match_rate:            4.000000
##########                desc_FMS_match_resid:            0.000000
##########    desc_FMS_num_hydrophobic_matched:                   0
##########          desc_FMS_num_donor_matched:                   0
##########       desc_FMS_num_acceptor_matched:                   0
##########       desc_FMS_num_aromatic_matched:                   0
##########       desc_FMS_num_positive_matched:                   0
##########       desc_FMS_num_negative_matched:                   0
##########           desc_FMS_num_ring_matched:                   0
########## Hungarian_Matching_Similarity_Score:            7.300019
##########       desc_HMS_num_unmtchd_hvy_atms:                  14
##########           desc_HMS_num_ref_hvy_atms:                  23
##########        desc_HMS_rmsd_mtchd_hvy_atms:            9.256541
##########               Property_Volume_Score:            0.000000
##########               desc_VOS_geometric_vo:            0.000000
##########                desc_VOS_hvy_atom_vo:            0.000000
##########            desc_VOS_pos_chrg_atm_vo:            0.000000
##########            desc_VOS_neg_chrg_atm_vo:            0.000000
##########         desc_VOS_hydrophobic_atm_vo:            0.000000
##########         desc_VOS_hydrophilic_atm_vo:            0.000000
##########           Internal_energy_repulsive:            1.805306

@<TRIPOS>MOLECULE
25
 19 19 1 0 0
SMALL
GASTEIGER


@<TRIPOS>ATOM
      1 O          22.9458   12.5952   41.2602 O.2     1  UNL1       -0.2450
      2 C          22.8149   11.5583   41.8837 C.2     1  UNL1        0.3389
      3 O          22.8207   11.5138   43.2366 O.3     1  UNL1       -0.4645
      4 C          22.6078   10.2364   41.1991 C.ar    1  UNL1        0.0592
      5 C          22.9618   12.7456   43.9847 C.3     1  UNL1        0.0820
      6 C          22.0419    9.1669   41.9018 C.ar    1  UNL1       -0.0443
      7 C          22.9696   10.0516   39.8594 C.ar    1  UNL1       -0.0443
      8 C          21.8462    7.9346   41.2795 C.ar    1  UNL1       -0.0194
      9 C          22.7658    8.8224   39.2354 C.ar    1  UNL1       -0.0194
     10 C          22.2059    7.7621   39.9453 C.ar    1  UNL1        0.1169
     11 O          22.0143    6.5621   39.3290 O.3     1  UNL1       -0.5068
     12 H          22.7937   12.5372   45.0444 H       1  UNL1        0.0661
     13 H          22.2267   13.4770   43.6362 H       1  UNL1        0.0661
     14 H          23.9724   13.1387   43.8433 H       1  UNL1        0.0661
     15 H          21.7570    9.2859   42.9438 H       1  UNL1        0.0627
     16 H          23.4052   10.8658   39.2870 H       1  UNL1        0.0627
     17 H          21.4120    7.1120   41.8424 H       1  UNL1        0.0654
     18 H          23.0440    8.6931   38.1921 H       1  UNL1        0.0654
     19 H          21.5004    5.9680   39.9048 H       1  UNL1        0.2921
@<TRIPOS>BOND
     1     1     2    2
     2     2     3    1
     3     2     4    1
     4     3     5    1
     5     4     6   ar
     6     4     7   ar
     7     6     8   ar
     8     7     9   ar
     9     8    10   ar
    10    10    11    1
    11     9    10   ar
    12     5    12    1
    13     5    13    1
    14     5    14    1
    15     6    15    1
    16     7    16    1
    17     8    17    1
    18     9    18    1
    19    11    19    1
@<TRIPOS>SUBSTRUCTURE
     1 UNL1        1 TEMP              0 ****  ****    0 ROOT


##########                                Name:                  27
##########                DOCK_Rotatable_Bonds:                   3
##########                         Heavy_Atoms:                  10
##########                    Molecular_Weight:             138.123
##########                       Formal_Charge:         0.000200056
##########                     HBond_Acceptors:                   3
##########                        HBond_Donors:                   2
##########                    Descriptor_Score:           39.263405
##########          Footprint_Similarity_Score:           11.420842
##########                 desc_FPS_vdw_energy:          -21.066973
##########                  desc_FPS_es_energy:           -2.558519
##########              desc_FPS_vdw+es_energy:          -23.625492
##########                  desc_FPS_num_hbond:                   3
##########                    desc_FPS_vdw_fps:            8.920313
##########                     desc_FPS_es_fps:            2.500529
##########                     desc_FPS_hb_fps:            1.732051
##########              desc_FPS_vdw_fp_numres:                 219
##########               desc_FPS_es_fp_numres:                 219
##########               desc_FPS_hb_fp_numres:                 219
##########                 Pharmacophore_Score:           20.000000
##########              desc_FMS_num_match_tot:                   0
##########              desc_FMS_max_match_ref:                  10
##########              desc_FMS_max_match_mol:                   6
##########                 desc_FMS_match_rate:            4.000000
##########                desc_FMS_match_resid:            0.000000
##########    desc_FMS_num_hydrophobic_matched:                   0
##########          desc_FMS_num_donor_matched:                   0
##########       desc_FMS_num_acceptor_matched:                   0
##########       desc_FMS_num_aromatic_matched:                   0
##########       desc_FMS_num_positive_matched:                   0
##########       desc_FMS_num_negative_matched:                   0
##########           desc_FMS_num_ring_matched:                   0
########## Hungarian_Matching_Similarity_Score:            7.842564
##########       desc_HMS_num_unmtchd_hvy_atms:                  15
##########           desc_HMS_num_ref_hvy_atms:                  23
##########        desc_HMS_rmsd_mtchd_hvy_atms:            9.581694
##########               Property_Volume_Score:            0.000000
##########               desc_VOS_geometric_vo:            0.000000
##########                desc_VOS_hvy_atom_vo:            0.000000
##########            desc_VOS_pos_chrg_atm_vo:            0.000000
##########            desc_VOS_neg_chrg_atm_vo:            0.000000
##########         desc_VOS_hydrophobic_atm_vo:            0.000000
##########         desc_VOS_hydrophilic_atm_vo:            0.000000
##########           Internal_energy_repulsive:            2.167524

@<TRIPOS>MOLECULE
27
 16 16 1 0 0
SMALL
GASTEIGER


@<TRIPOS>ATOM
      1 O          23.5039    8.3867   37.2607 O.2     1  UNL1       -0.2451
      2 C          22.8339    7.8740   38.1338 C.2     1  UNL1        0.3369
      3 O          22.2059    6.7495   37.9332 O.3     1  UNL1       -0.4771
      4 C          22.6475    8.4700   39.5008 C.ar    1  UNL1        0.0623
      5 C          22.0007    7.7155   40.4812 C.ar    1  UNL1       -0.0062
      6 C          23.1016    9.7572   39.8263 C.ar    1  UNL1       -0.0475
      7 C          21.8151    8.2299   41.7616 C.ar    1  UNL1        0.1176
      8 C          22.9090   10.2718   41.1076 C.ar    1  UNL1       -0.0575
      9 O          21.1951    7.4720   42.7032 O.3     1  UNL1       -0.5067
     10 C          22.2662    9.5083   42.0779 C.ar    1  UNL1       -0.0201
     11 H          22.3933    6.5072   37.0129 H       1  UNL1        0.2954
     12 H          21.6419    6.7156   40.2477 H       1  UNL1        0.0662
     13 H          23.6063   10.3782   39.0911 H       1  UNL1        0.0626
     14 H          23.2621   11.2709   41.3514 H       1  UNL1        0.0619
     15 H          21.0673    6.5774   42.3411 H       1  UNL1        0.2921
     16 H          22.1192    9.9089   43.0784 H       1  UNL1        0.0654
@<TRIPOS>BOND
     1     1     2    2
     2     2     3    1
     3     2     4    1
     4     4     5   ar
     5     4     6   ar
     6     5     7   ar
     7     6     8   ar
     8     7     9    1
     9     7    10   ar
    10     8    10   ar
    11     3    11    1
    12     5    12    1
    13     6    13    1
    14     8    14    1
    15     9    15    1
    16    10    16    1
@<TRIPOS>SUBSTRUCTURE
     1 UNL1        1 TEMP              0 ****  ****    0 ROOT


##########                                Name:                  27
##########                DOCK_Rotatable_Bonds:                   3
##########                         Heavy_Atoms:                  10
##########                    Molecular_Weight:             138.123
##########                       Formal_Charge:         0.000200056
##########                     HBond_Acceptors:                   3
##########                        HBond_Donors:                   2
##########                    Descriptor_Score:           39.305798
##########          Footprint_Similarity_Score:           11.556344
##########                 desc_FPS_vdw_energy:          -21.850672
##########                  desc_FPS_es_energy:           -2.349968
##########              desc_FPS_vdw+es_energy:          -24.200640
##########                  desc_FPS_num_hbond:                   2
##########                    desc_FPS_vdw_fps:            9.073162
##########                     desc_FPS_es_fps:            2.483182
##########                     desc_FPS_hb_fps:            1.414214
##########              desc_FPS_vdw_fp_numres:                 219
##########               desc_FPS_es_fp_numres:                 219
##########               desc_FPS_hb_fp_numres:                 219
##########                 Pharmacophore_Score:           20.000000
##########              desc_FMS_num_match_tot:                   0
##########              desc_FMS_max_match_ref:                  10
##########              desc_FMS_max_match_mol:                   6
##########                 desc_FMS_match_rate:            4.000000
##########                desc_FMS_match_resid:            0.000000
##########    desc_FMS_num_hydrophobic_matched:                   0
##########          desc_FMS_num_donor_matched:                   0
##########       desc_FMS_num_acceptor_matched:                   0
##########       desc_FMS_num_aromatic_matched:                   0
##########       desc_FMS_num_positive_matched:                   0
##########       desc_FMS_num_negative_matched:                   0
##########           desc_FMS_num_ring_matched:                   0
########## Hungarian_Matching_Similarity_Score:            7.749454
##########       desc_HMS_num_unmtchd_hvy_atms:                  15
##########           desc_HMS_num_ref_hvy_atms:                  23
##########        desc_HMS_rmsd_mtchd_hvy_atms:            9.488585
##########               Property_Volume_Score:            0.000000
##########               desc_VOS_geometric_vo:            0.000000
##########                desc_VOS_hvy_atom_vo:            0.000000
##########            desc_VOS_pos_chrg_atm_vo:            0.000000
##########            desc_VOS_neg_chrg_atm_vo:            0.000000
##########         desc_VOS_hydrophobic_atm_vo:            0.000000
##########         desc_VOS_hydrophilic_atm_vo:            0.000000
##########           Internal_energy_repulsive:            2.134522

@<TRIPOS>MOLECULE
27
 16 16 1 0 0
SMALL
GASTEIGER


@<TRIPOS>ATOM
      1 O          23.3124    8.7238   37.1735 O.2     1  UNL1       -0.2451
      2 C          22.6823    8.1623   38.0461 C.2     1  UNL1        0.3369
      3 O          22.0368    7.0548   37.8096 O.3     1  UNL1       -0.4771
      4 C          22.5675    8.6755   39.4540 C.ar    1  UNL1        0.0623
      5 C          21.9858    7.8564   40.4233 C.ar    1  UNL1       -0.0062
      6 C          23.0253    9.9480   39.8283 C.ar    1  UNL1       -0.0475
      7 C          21.8679    8.2931   41.7401 C.ar    1  UNL1        0.1176
      8 C          22.9004   10.3848   41.1465 C.ar    1  UNL1       -0.0575
      9 O          21.3108    7.4733   42.6690 O.3     1  UNL1       -0.5067
     10 C          22.3222    9.5573   42.1049 C.ar    1  UNL1       -0.0201
     11 H          22.2085    6.8473   36.8778 H       1  UNL1        0.2954
     12 H          21.6252    6.8667   40.1522 H       1  UNL1        0.0662
     13 H          23.4805   10.6176   39.1037 H       1  UNL1        0.0626
     14 H          23.2559   11.3730   41.4281 H       1  UNL1        0.0619
     15 H          21.3317    6.5624   42.3259 H       1  UNL1        0.2921
     16 H          22.2281    9.8973   43.1339 H       1  UNL1        0.0654
@<TRIPOS>BOND
     1     1     2    2
     2     2     3    1
     3     2     4    1
     4     4     5   ar
     5     4     6   ar
     6     5     7   ar
     7     6     8   ar
     8     7     9    1
     9     7    10   ar
    10     8    10   ar
    11     3    11    1
    12     5    12    1
    13     6    13    1
    14     8    14    1
    15     9    15    1
    16    10    16    1
@<TRIPOS>SUBSTRUCTURE
     1 UNL1        1 TEMP              0 ****  ****    0 ROOT


##########                                Name:                  27
##########                DOCK_Rotatable_Bonds:                   3
##########                         Heavy_Atoms:                  10
##########                    Molecular_Weight:             138.123
##########                       Formal_Charge:         0.000200056
##########                     HBond_Acceptors:                   3
##########                        HBond_Donors:                   2
##########                    Descriptor_Score:           39.078598
##########          Footprint_Similarity_Score:           11.263294
##########                 desc_FPS_vdw_energy:          -20.950792
##########                  desc_FPS_es_energy:           -2.318898
##########              desc_FPS_vdw+es_energy:          -23.269690
##########                  desc_FPS_num_hbond:                   3
##########                    desc_FPS_vdw_fps:            8.921283
##########                     desc_FPS_es_fps:            2.342012
##########                     desc_FPS_hb_fps:            1.732051
##########              desc_FPS_vdw_fp_numres:                 219
##########               desc_FPS_es_fp_numres:                 219
##########               desc_FPS_hb_fp_numres:                 219
##########                 Pharmacophore_Score:           20.000000
##########              desc_FMS_num_match_tot:                   0
##########              desc_FMS_max_match_ref:                  10
##########              desc_FMS_max_match_mol:                   6
##########                 desc_FMS_match_rate:            4.000000
##########                desc_FMS_match_resid:            0.000000
##########    desc_FMS_num_hydrophobic_matched:                   0
##########          desc_FMS_num_donor_matched:                   0
##########       desc_FMS_num_acceptor_matched:                   0
##########       desc_FMS_num_aromatic_matched:                   0
##########       desc_FMS_num_positive_matched:                   0
##########       desc_FMS_num_negative_matched:                   0
##########           desc_FMS_num_ring_matched:                   0
########## Hungarian_Matching_Similarity_Score:            7.815306
##########       desc_HMS_num_unmtchd_hvy_atms:                  15
##########           desc_HMS_num_ref_hvy_atms:                  23
##########        desc_HMS_rmsd_mtchd_hvy_atms:            9.554436
##########               Property_Volume_Score:            0.000000
##########               desc_VOS_geometric_vo:            0.000000
##########                desc_VOS_hvy_atom_vo:            0.000000
##########            desc_VOS_pos_chrg_atm_vo:            0.000000
##########            desc_VOS_neg_chrg_atm_vo:            0.000000
##########         desc_VOS_hydrophobic_atm_vo:            0.000000
##########         desc_VOS_hydrophilic_atm_vo:            0.000000
##########           Internal_energy_repulsive:            2.290507

@<TRIPOS>MOLECULE
27
 16 16 1 0 0
SMALL
GASTEIGER


@<TRIPOS>ATOM
      1 O          23.3428    8.4825   37.1890 O.2     1  UNL1       -0.2451
      2 C          22.8034    7.9011   38.1082 C.2     1  UNL1        0.3369
      3 O          22.3145    6.7022   37.9574 O.3     1  UNL1       -0.4771
      4 C          22.6311    8.4888   39.4807 C.ar    1  UNL1        0.0623
      5 C          21.9937    7.7287   40.4629 C.ar    1  UNL1       -0.0062
      6 C          23.0893    9.7738   39.8095 C.ar    1  UNL1       -0.0475
      7 C          21.8215    8.2352   41.7482 C.ar    1  UNL1        0.1176
      8 C          22.9099   10.2805   41.0959 C.ar    1  UNL1       -0.0575
      9 O          21.2105    7.4719   42.6914 O.3     1  UNL1       -0.5067
     10 C          22.2765    9.5114   42.0678 C.ar    1  UNL1       -0.0201
     11 H          22.5350    6.4435   37.0490 H       1  UNL1        0.2954
     12 H          21.6320    6.7304   40.2269 H       1  UNL1        0.0662
     13 H          23.5869   10.3990   39.0731 H       1  UNL1        0.0626
     14 H          23.2661   11.2779   41.3422 H       1  UNL1        0.0619
     15 H          20.9349    6.6352   42.2771 H       1  UNL1        0.2921
     16 H          22.1399    9.9060   43.0723 H       1  UNL1        0.0654
@<TRIPOS>BOND
     1     1     2    2
     2     2     3    1
     3     2     4    1
     4     4     5   ar
     5     4     6   ar
     6     5     7   ar
     7     6     8   ar
     8     7     9    1
     9     7    10   ar
    10     8    10   ar
    11     3    11    1
    12     5    12    1
    13     6    13    1
    14     8    14    1
    15     9    15    1
    16    10    16    1
@<TRIPOS>SUBSTRUCTURE
     1 UNL1        1 TEMP              0 ****  ****    0 ROOT


##########                                Name:                  28
##########                DOCK_Rotatable_Bonds:                   2
##########                         Heavy_Atoms:                  19
##########                    Molecular_Weight:             260.246
##########                       Formal_Charge:         -8.9407e-08
##########                     HBond_Acceptors:                   5
##########                        HBond_Donors:                   0
##########                    Descriptor_Score:           41.596535
##########          Footprint_Similarity_Score:           12.758739
##########                 desc_FPS_vdw_energy:          -28.940983
##########                  desc_FPS_es_energy:           -0.733195
##########              desc_FPS_vdw+es_energy:          -29.674177
##########                  desc_FPS_num_hbond:                   0
##########                    desc_FPS_vdw_fps:           10.485403
##########                     desc_FPS_es_fps:            2.273335
##########                     desc_FPS_hb_fps:            0.000000
##########              desc_FPS_vdw_fp_numres:                 219
##########               desc_FPS_es_fp_numres:                 219
##########               desc_FPS_hb_fp_numres:                 219
##########                 Pharmacophore_Score:           20.000000
##########              desc_FMS_num_match_tot:                   0
##########              desc_FMS_max_match_ref:                  10
##########              desc_FMS_max_match_mol:                   9
##########                 desc_FMS_match_rate:            4.000000
##########                desc_FMS_match_resid:            0.000000
##########    desc_FMS_num_hydrophobic_matched:                   0
##########          desc_FMS_num_donor_matched:                   0
##########       desc_FMS_num_acceptor_matched:                   0
##########       desc_FMS_num_aromatic_matched:                   0
##########       desc_FMS_num_positive_matched:                   0
##########       desc_FMS_num_negative_matched:                   0
##########           desc_FMS_num_ring_matched:                   0
########## Hungarian_Matching_Similarity_Score:            8.837797
##########       desc_HMS_num_unmtchd_hvy_atms:                  14
##########           desc_HMS_num_ref_hvy_atms:                  23
##########        desc_HMS_rmsd_mtchd_hvy_atms:           10.794319
##########               Property_Volume_Score:            0.000000
##########               desc_VOS_geometric_vo:            0.000000
##########                desc_VOS_hvy_atom_vo:            0.000000
##########            desc_VOS_pos_chrg_atm_vo:            0.000000
##########            desc_VOS_neg_chrg_atm_vo:            0.000000
##########         desc_VOS_hydrophobic_atm_vo:            0.000000
##########         desc_VOS_hydrophilic_atm_vo:            0.000000
##########           Internal_energy_repulsive:            9.028195

@<TRIPOS>MOLECULE
28
 31 33 1 0 0
SMALL
GASTEIGER


@<TRIPOS>ATOM
      1 O          24.1883   10.4416   36.6803 O.2     1  UNL1       -0.2869
      2 C          24.0702   11.0824   37.7073 C.ar    1  UNL1        0.1964
      3 C          23.5331   10.5713   38.9965 C.ar    1  UNL1        0.1099
      4 C          24.4983   12.4784   37.7287 C.ar    1  UNL1        0.0237
      5 C          23.4752   11.4620   40.0809 C.ar    1  UNL1        0.1874
      6 C          23.0634    9.1911   39.1944 C.ar    1  UNL1        0.1454
      7 C          24.3846   13.2516   38.8541 C.ar    1  UNL1        0.1064
      8 O          23.8369   12.8002   40.0301 O.2     1  UNL1       -0.4558
      9 C          22.9835   11.0444   41.3826 C.ar    1  UNL1        0.2063
     10 O          23.1819    8.3891   38.0675 O.3     1  UNL1       -0.4936
     11 C          22.4880    8.8408   40.4688 C.ar    1  UNL1        0.0663
     12 C          24.8281   14.6870   38.8493 C.3     1  UNL1       -0.0062
     13 O          22.7668   11.6795   42.5960 O.3     1  UNL1       -0.4884
     14 C          22.3576    9.7595   41.5221 C.ar    1  UNL1        0.1834
     15 C          22.6795    7.0433   37.9343 C.3     1  UNL1        0.0788
     16 C          22.0161    7.5842   40.9642 C.ar    1  UNL1       -0.0125
     17 C          23.0717   13.0800   42.7804 C.3     1  UNL1        0.0791
     18 O          21.9347    9.1280   42.6644 O.2     1  UNL1       -0.4590
     19 C          21.6856    7.8274   42.2802 C.ar    1  UNL1        0.0934
     20 H          24.9160   12.8616   36.8002 H       1  UNL1        0.0689
     21 H          25.2267   14.9890   37.8780 H       1  UNL1        0.0308
     22 H          25.6068   14.8501   39.5983 H       1  UNL1        0.0308
     23 H          23.9914   15.3460   39.0896 H       1  UNL1        0.0308
     24 H          22.9146    6.6831   36.9291 H       1  UNL1        0.0660
     25 H          21.5949    7.0395   38.0728 H       1  UNL1        0.0660
     26 H          23.1664    6.3976   38.6697 H       1  UNL1        0.0660
     27 H          21.9413    6.6412   40.4391 H       1  UNL1        0.0656
     28 H          22.8421   13.3668   43.8094 H       1  UNL1        0.0660
     29 H          22.4679   13.6777   42.0912 H       1  UNL1        0.0660
     30 H          24.1340   13.2489   42.5808 H       1  UNL1        0.0660
     31 H          21.2801    7.1941   43.0606 H       1  UNL1        0.1030
@<TRIPOS>BOND
     1     1     2    2
     2     2     3   ar
     3     2     4   ar
     4     3     5   ar
     5     3     6   ar
     6     4     7   ar
     7     5     8   ar
     8     5     9   ar
     9     6    10    1
    10     6    11   ar
    11     7    12    1
    12     9    13    1
    13     9    14   ar
    14    10    15    1
    15    11    16   ar
    16    13    17    1
    17    14    18   ar
    18    16    19   ar
    19     7     8   ar
    20    11    14   ar
    21    18    19   ar
    22     4    20    1
    23    12    21    1
    24    12    22    1
    25    12    23    1
    26    15    24    1
    27    15    25    1
    28    15    26    1
    29    16    27    1
    30    17    28    1
    31    17    29    1
    32    17    30    1
    33    19    31    1
@<TRIPOS>SUBSTRUCTURE
     1 UNL1        1 TEMP              0 ****  ****    0 ROOT


##########                                Name:                  28
##########                DOCK_Rotatable_Bonds:                   2
##########                         Heavy_Atoms:                  19
##########                    Molecular_Weight:             260.246
##########                       Formal_Charge:         -8.9407e-08
##########                     HBond_Acceptors:                   5
##########                        HBond_Donors:                   0
##########                    Descriptor_Score:           41.351574
##########          Footprint_Similarity_Score:           12.745980
##########                 desc_FPS_vdw_energy:          -27.930643
##########                  desc_FPS_es_energy:           -1.122382
##########              desc_FPS_vdw+es_energy:          -29.053024
##########                  desc_FPS_num_hbond:                   0
##########                    desc_FPS_vdw_fps:           10.656247
##########                     desc_FPS_es_fps:            2.089733
##########                     desc_FPS_hb_fps:            0.000000
##########              desc_FPS_vdw_fp_numres:                 219
##########               desc_FPS_es_fp_numres:                 219
##########               desc_FPS_hb_fp_numres:                 219
##########                 Pharmacophore_Score:           20.000000
##########              desc_FMS_num_match_tot:                   0
##########              desc_FMS_max_match_ref:                  10
##########              desc_FMS_max_match_mol:                   9
##########                 desc_FMS_match_rate:            4.000000
##########                desc_FMS_match_resid:            0.000000
##########    desc_FMS_num_hydrophobic_matched:                   0
##########          desc_FMS_num_donor_matched:                   0
##########       desc_FMS_num_acceptor_matched:                   0
##########       desc_FMS_num_aromatic_matched:                   0
##########       desc_FMS_num_positive_matched:                   0
##########       desc_FMS_num_negative_matched:                   0
##########           desc_FMS_num_ring_matched:                   0
########## Hungarian_Matching_Similarity_Score:            8.605595
##########       desc_HMS_num_unmtchd_hvy_atms:                  14
##########           desc_HMS_num_ref_hvy_atms:                  23
##########        desc_HMS_rmsd_mtchd_hvy_atms:           10.562117
##########               Property_Volume_Score:            0.000000
##########               desc_VOS_geometric_vo:            0.000000
##########                desc_VOS_hvy_atom_vo:            0.000000
##########            desc_VOS_pos_chrg_atm_vo:            0.000000
##########            desc_VOS_neg_chrg_atm_vo:            0.000000
##########         desc_VOS_hydrophobic_atm_vo:            0.000000
##########         desc_VOS_hydrophilic_atm_vo:            0.000000
##########           Internal_energy_repulsive:            8.906020

@<TRIPOS>MOLECULE
28
 31 33 1 0 0
SMALL
GASTEIGER


@<TRIPOS>ATOM
      1 O          24.5018   11.5660   37.1847 O.2     1  UNL1       -0.2869
      2 C          24.0084   10.7924   37.9832 C.ar    1  UNL1        0.1964
      3 C          23.6225   11.1134   39.3830 C.ar    1  UNL1        0.1099
      4 C          23.7355    9.4190   37.5685 C.ar    1  UNL1        0.0237
      5 C          23.0608   10.0864   40.1593 C.ar    1  UNL1        0.1874
      6 C          23.7962   12.4410   39.9929 C.ar    1  UNL1        0.1454
      7 C          23.1864    8.5015   38.4251 C.ar    1  UNL1        0.1064
      8 O          22.8810    8.7779   39.7355 O.2     1  UNL1       -0.4558
      9 C          22.6366   10.3144   41.5299 C.ar    1  UNL1        0.2063
     10 O          24.3408   13.3873   39.1357 O.3     1  UNL1       -0.4936
     11 C          23.4588   12.6033   41.3849 C.ar    1  UNL1        0.0663
     12 C          22.9193    7.0930   37.9759 C.3     1  UNL1       -0.0062
     13 O          22.1080    9.5191   42.5352 O.3     1  UNL1       -0.4884
     14 C          22.9750   11.5506   42.1775 C.ar    1  UNL1        0.1834
     15 C          24.7230   14.7308   39.4970 C.3     1  UNL1        0.0788
     16 C          23.4607   13.7694   42.2142 C.ar    1  UNL1       -0.0125
     17 C          21.6167    8.1872   42.2648 C.3     1  UNL1        0.0791
     18 O          22.5809   12.0136   43.4075 O.2     1  UNL1       -0.4590
     19 C          22.9377   13.3455   43.4171 C.ar    1  UNL1        0.0934
     20 H          23.9898    9.1738   36.5397 H       1  UNL1        0.0689
     21 H          23.2102    6.9334   36.9349 H       1  UNL1        0.0308
     22 H          21.8568    6.8560   38.0687 H       1  UNL1        0.0308
     23 H          23.4742    6.3836   38.5932 H       1  UNL1        0.0308
     24 H          25.1321   15.2251   38.6115 H       1  UNL1        0.0660
     25 H          25.4889   14.6989   40.2767 H       1  UNL1        0.0660
     26 H          23.8430   15.2808   39.8403 H       1  UNL1        0.0660
     27 H          23.7851   14.7706   41.9636 H       1  UNL1        0.0656
     28 H          21.2314    7.7501   43.1891 H       1  UNL1        0.0660
     29 H          22.4337    7.5689   41.8813 H       1  UNL1        0.0660
     30 H          20.8152    8.2404   41.5222 H       1  UNL1        0.0660
     31 H          22.7493   13.8583   44.3531 H       1  UNL1        0.1030
@<TRIPOS>BOND
     1     1     2    2
     2     2     3   ar
     3     2     4   ar
     4     3     5   ar
     5     3     6   ar
     6     4     7   ar
     7     5     8   ar
     8     5     9   ar
     9     6    10    1
    10     6    11   ar
    11     7    12    1
    12     9    13    1
    13     9    14   ar
    14    10    15    1
    15    11    16   ar
    16    13    17    1
    17    14    18   ar
    18    16    19   ar
    19     7     8   ar
    20    11    14   ar
    21    18    19   ar
    22     4    20    1
    23    12    21    1
    24    12    22    1
    25    12    23    1
    26    15    24    1
    27    15    25    1
    28    15    26    1
    29    16    27    1
    30    17    28    1
    31    17    29    1
    32    17    30    1
    33    19    31    1
@<TRIPOS>SUBSTRUCTURE
     1 UNL1        1 TEMP              0 ****  ****    0 ROOT


##########                                Name:                  28
##########                DOCK_Rotatable_Bonds:                   2
##########                         Heavy_Atoms:                  19
##########                    Molecular_Weight:             260.246
##########                       Formal_Charge:         -8.9407e-08
##########                     HBond_Acceptors:                   5
##########                        HBond_Donors:                   0
##########                    Descriptor_Score:           41.302315
##########          Footprint_Similarity_Score:           12.734383
##########                 desc_FPS_vdw_energy:          -29.255091
##########                  desc_FPS_es_energy:           -0.017174
##########              desc_FPS_vdw+es_energy:          -29.272264
##########                  desc_FPS_num_hbond:                   0
##########                    desc_FPS_vdw_fps:           10.712841
##########                     desc_FPS_es_fps:            2.021542
##########                     desc_FPS_hb_fps:            0.000000
##########              desc_FPS_vdw_fp_numres:                 219
##########               desc_FPS_es_fp_numres:                 219
##########               desc_FPS_hb_fp_numres:                 219
##########                 Pharmacophore_Score:           20.000000
##########              desc_FMS_num_match_tot:                   0
##########              desc_FMS_max_match_ref:                  10
##########              desc_FMS_max_match_mol:                   9
##########                 desc_FMS_match_rate:            4.000000
##########                desc_FMS_match_resid:            0.000000
##########    desc_FMS_num_hydrophobic_matched:                   0
##########          desc_FMS_num_donor_matched:                   0
##########       desc_FMS_num_acceptor_matched:                   0
##########       desc_FMS_num_aromatic_matched:                   0
##########       desc_FMS_num_positive_matched:                   0
##########       desc_FMS_num_negative_matched:                   0
##########           desc_FMS_num_ring_matched:                   0
########## Hungarian_Matching_Similarity_Score:            8.567932
##########       desc_HMS_num_unmtchd_hvy_atms:                  14
##########           desc_HMS_num_ref_hvy_atms:                  23
##########        desc_HMS_rmsd_mtchd_hvy_atms:           10.524454
##########               Property_Volume_Score:            0.000000
##########               desc_VOS_geometric_vo:            0.000000
##########                desc_VOS_hvy_atom_vo:            0.000000
##########            desc_VOS_pos_chrg_atm_vo:            0.000000
##########            desc_VOS_neg_chrg_atm_vo:            0.000000
##########         desc_VOS_hydrophobic_atm_vo:            0.000000
##########         desc_VOS_hydrophilic_atm_vo:            0.000000
##########           Internal_energy_repulsive:            8.483031

@<TRIPOS>MOLECULE
28
 31 33 1 0 0
SMALL
GASTEIGER


@<TRIPOS>ATOM
      1 O          22.0039    9.3588   42.7866 O.2     1  UNL1       -0.2869
      2 C          22.3419    9.3883   41.6186 C.ar    1  UNL1        0.1964
      3 C          22.9215   10.5594   40.9085 C.ar    1  UNL1        0.1099
      4 C          22.2015    8.1830   40.8061 C.ar    1  UNL1        0.0237
      5 C          23.2556   10.4038   39.5532 C.ar    1  UNL1        0.1874
      6 C          23.1622   11.8630   41.5468 C.ar    1  UNL1        0.1454
      7 C          22.5597    8.1575   39.4839 C.ar    1  UNL1        0.1064
      8 O          23.0421    9.2525   38.8094 O.2     1  UNL1       -0.4558
      9 C          23.8445   11.4876   38.7858 C.ar    1  UNL1        0.2063
     10 O          22.8159   11.9043   42.8904 O.3     1  UNL1       -0.4936
     11 C          23.6523   12.9444   40.7293 C.ar    1  UNL1        0.0663
     12 C          22.4011    6.9060   38.6679 C.3     1  UNL1       -0.0062
     13 O          24.2288   11.6539   37.4640 O.3     1  UNL1       -0.4884
     14 C          23.9062   12.8042   39.3559 C.ar    1  UNL1        0.1834
     15 C          22.9145   13.0581   43.7510 C.3     1  UNL1        0.0788
     16 C          24.0343   14.2780   41.0797 C.ar    1  UNL1       -0.0125
     17 C          24.6072   10.5284   36.6403 C.3     1  UNL1        0.0791
     18 O          24.5163   13.9287   38.8602 O.2     1  UNL1       -0.4590
     19 C          24.5296   14.8194   39.9128 C.ar    1  UNL1        0.0934
     20 H          21.8011    7.3098   41.3166 H       1  UNL1        0.0689
     21 H          21.9875    6.0835   39.2562 H       1  UNL1        0.0308
     22 H          23.3661    6.5832   38.2697 H       1  UNL1        0.0308
     23 H          21.7341    7.0837   37.8219 H       1  UNL1        0.0308
     24 H          22.5547   12.7808   44.7456 H       1  UNL1        0.0660
     25 H          22.2927   13.8663   43.3564 H       1  UNL1        0.0660
     26 H          23.9591   13.3720   43.8222 H       1  UNL1        0.0660
     27 H          23.9674   14.7638   42.0441 H       1  UNL1        0.0656
     28 H          24.8886   10.8864   35.6471 H       1  UNL1        0.0660
     29 H          23.7615    9.8397   36.5543 H       1  UNL1        0.0660
     30 H          25.4565   10.0132   37.0987 H       1  UNL1        0.0660
     31 H          24.9297   15.7977   39.6734 H       1  UNL1        0.1030
@<TRIPOS>BOND
     1     1     2    2
     2     2     3   ar
     3     2     4   ar
     4     3     5   ar
     5     3     6   ar
     6     4     7   ar
     7     5     8   ar
     8     5     9   ar
     9     6    10    1
    10     6    11   ar
    11     7    12    1
    12     9    13    1
    13     9    14   ar
    14    10    15    1
    15    11    16   ar
    16    13    17    1
    17    14    18   ar
    18    16    19   ar
    19     7     8   ar
    20    11    14   ar
    21    18    19   ar
    22     4    20    1
    23    12    21    1
    24    12    22    1
    25    12    23    1
    26    15    24    1
    27    15    25    1
    28    15    26    1
    29    16    27    1
    30    17    28    1
    31    17    29    1
    32    17    30    1
    33    19    31    1
@<TRIPOS>SUBSTRUCTURE
     1 UNL1        1 TEMP              0 ****  ****    0 ROOT


##########                                Name:                  29
##########                DOCK_Rotatable_Bonds:                   3
##########                         Heavy_Atoms:                  10
##########                    Molecular_Weight:             142.111
##########                       Formal_Charge:        -0.000100031
##########                     HBond_Acceptors:                   4
##########                        HBond_Donors:                   2
##########                    Descriptor_Score:           39.666435
##########          Footprint_Similarity_Score:           11.234341
##########                 desc_FPS_vdw_energy:          -22.302753
##########                  desc_FPS_es_energy:           -2.024995
##########              desc_FPS_vdw+es_energy:          -24.327747
##########                  desc_FPS_num_hbond:                   2
##########                    desc_FPS_vdw_fps:            9.109273
##########                     desc_FPS_es_fps:            2.125067
##########                     desc_FPS_hb_fps:            1.414214
##########              desc_FPS_vdw_fp_numres:                 219
##########               desc_FPS_es_fp_numres:                 219
##########               desc_FPS_hb_fp_numres:                 219
##########                 Pharmacophore_Score:           20.000000
##########              desc_FMS_num_match_tot:                   0
##########              desc_FMS_max_match_ref:                  10
##########              desc_FMS_max_match_mol:                   7
##########                 desc_FMS_match_rate:            4.000000
##########                desc_FMS_match_resid:            0.000000
##########    desc_FMS_num_hydrophobic_matched:                   0
##########          desc_FMS_num_donor_matched:                   0
##########       desc_FMS_num_acceptor_matched:                   0
##########       desc_FMS_num_aromatic_matched:                   0
##########       desc_FMS_num_positive_matched:                   0
##########       desc_FMS_num_negative_matched:                   0
##########           desc_FMS_num_ring_matched:                   0
########## Hungarian_Matching_Similarity_Score:            8.432093
##########       desc_HMS_num_unmtchd_hvy_atms:                  17
##########           desc_HMS_num_ref_hvy_atms:                  23
##########        desc_HMS_rmsd_mtchd_hvy_atms:            9.736441
##########               Property_Volume_Score:            0.000000
##########               desc_VOS_geometric_vo:            0.000000
##########                desc_VOS_hvy_atom_vo:            0.000000
##########            desc_VOS_pos_chrg_atm_vo:            0.000000
##########            desc_VOS_neg_chrg_atm_vo:            0.000000
##########         desc_VOS_hydrophobic_atm_vo:            0.000000
##########         desc_VOS_hydrophilic_atm_vo:            0.000000
##########           Internal_energy_repulsive:            1.064630

@<TRIPOS>MOLECULE
29
 16 16 1 0 0
SMALL
GASTEIGER


@<TRIPOS>ATOM
      1 O          21.4408    8.2660   42.6623 O.2     1  UNL1       -0.2838
      2 C          22.0755    8.6320   41.6907 C.ar    1  UNL1        0.2263
      3 C          22.8495    9.8766   41.6487 C.ar    1  UNL1        0.1992
      4 C          22.1295    7.8765   40.4398 C.ar    1  UNL1        0.0292
      5 O          22.8090   10.6087   42.7850 O.3     1  UNL1       -0.5012
      6 C          23.5498   10.2527   40.5241 C.ar    1  UNL1        0.1372
      7 C          22.8538    8.3299   39.3590 C.ar    1  UNL1        0.1339
      8 O          23.5921    9.5052   39.3538 O.2     1  UNL1       -0.4616
      9 C          22.8710    7.5327   38.0831 C.3     1  UNL1        0.1020
     10 O          21.6414    6.8278   37.9126 O.3     1  UNL1       -0.3873
     11 H          21.5649    6.9498   40.4168 H       1  UNL1        0.0691
     12 H          23.3802   11.3903   42.6358 H       1  UNL1        0.2924
     13 H          24.1424   11.1519   40.4060 H       1  UNL1        0.1069
     14 H          23.6878    6.8063   38.1068 H       1  UNL1        0.0638
     15 H          23.0248    8.1781   37.2138 H       1  UNL1        0.0638
     16 H          20.9216    7.4867   37.8839 H       1  UNL1        0.2100
@<TRIPOS>BOND
     1     1     2    2
     2     2     3   ar
     3     2     4   ar
     4     3     5    1
     5     3     6   ar
     6     4     7   ar
     7     6     8   ar
     8     7     9    1
     9     9    10    1
    10     7     8   ar
    11     4    11    1
    12     5    12    1
    13     6    13    1
    14     9    14    1
    15     9    15    1
    16    10    16    1
@<TRIPOS>SUBSTRUCTURE
     1 UNL1        1 TEMP              0 ****  ****    0 ROOT


##########                                Name:                  29
##########                DOCK_Rotatable_Bonds:                   3
##########                         Heavy_Atoms:                  10
##########                    Molecular_Weight:             142.111
##########                       Formal_Charge:        -0.000100031
##########                     HBond_Acceptors:                   4
##########                        HBond_Donors:                   2
##########                    Descriptor_Score:           39.514221
##########          Footprint_Similarity_Score:           11.092339
##########                 desc_FPS_vdw_energy:          -22.029179
##########                  desc_FPS_es_energy:           -1.677973
##########              desc_FPS_vdw+es_energy:          -23.707151
##########                  desc_FPS_num_hbond:                   2
##########                    desc_FPS_vdw_fps:            8.940010
##########                     desc_FPS_es_fps:            2.152329
##########                     desc_FPS_hb_fps:            1.414214
##########              desc_FPS_vdw_fp_numres:                 219
##########               desc_FPS_es_fp_numres:                 219
##########               desc_FPS_hb_fp_numres:                 219
##########                 Pharmacophore_Score:           20.000000
##########              desc_FMS_num_match_tot:                   0
##########              desc_FMS_max_match_ref:                  10
##########              desc_FMS_max_match_mol:                   7
##########                 desc_FMS_match_rate:            4.000000
##########                desc_FMS_match_resid:            0.000000
##########    desc_FMS_num_hydrophobic_matched:                   0
##########          desc_FMS_num_donor_matched:                   0
##########       desc_FMS_num_acceptor_matched:                   0
##########       desc_FMS_num_aromatic_matched:                   0
##########       desc_FMS_num_positive_matched:                   0
##########       desc_FMS_num_negative_matched:                   0
##########           desc_FMS_num_ring_matched:                   0
########## Hungarian_Matching_Similarity_Score:            8.421882
##########       desc_HMS_num_unmtchd_hvy_atms:                  17
##########           desc_HMS_num_ref_hvy_atms:                  23
##########        desc_HMS_rmsd_mtchd_hvy_atms:            9.726230
##########               Property_Volume_Score:            0.000000
##########               desc_VOS_geometric_vo:            0.000000
##########                desc_VOS_hvy_atom_vo:            0.000000
##########            desc_VOS_pos_chrg_atm_vo:            0.000000
##########            desc_VOS_neg_chrg_atm_vo:            0.000000
##########         desc_VOS_hydrophobic_atm_vo:            0.000000
##########         desc_VOS_hydrophilic_atm_vo:            0.000000
##########           Internal_energy_repulsive:            1.190507

@<TRIPOS>MOLECULE
29
 16 16 1 0 0
SMALL
GASTEIGER


@<TRIPOS>ATOM
      1 O          21.5031    7.9460   42.6667 O.2     1  UNL1       -0.2838
      2 C          22.0963    8.4492   41.7309 C.ar    1  UNL1        0.2263
      3 C          22.8186    9.7222   41.8180 C.ar    1  UNL1        0.1992
      4 C          22.1466    7.8472   40.3992 C.ar    1  UNL1        0.0292
      5 O          22.7797   10.3149   43.0328 O.3     1  UNL1       -0.5012
      6 C          23.4728   10.2560   40.7300 C.ar    1  UNL1        0.1372
      7 C          22.8228    8.4537   39.3633 C.ar    1  UNL1        0.1339
      8 O          23.5132    9.6521   39.4795 O.2     1  UNL1       -0.4616
      9 C          22.8374    7.8116   38.0026 C.3     1  UNL1        0.1020
     10 O          21.6601    7.0298   37.8017 O.3     1  UNL1       -0.3873
     11 H          21.6190    6.9061   40.2802 H       1  UNL1        0.0691
     12 H          23.3085   11.1362   42.9616 H       1  UNL1        0.2924
     13 H          24.0256   11.1874   40.7051 H       1  UNL1        0.1069
     14 H          23.7091    7.1587   37.9064 H       1  UNL1        0.0638
     15 H          22.8952    8.5626   37.2099 H       1  UNL1        0.0638
     16 H          20.8921    7.6310   37.8441 H       1  UNL1        0.2100
@<TRIPOS>BOND
     1     1     2    2
     2     2     3   ar
     3     2     4   ar
     4     3     5    1
     5     3     6   ar
     6     4     7   ar
     7     6     8   ar
     8     7     9    1
     9     9    10    1
    10     7     8   ar
    11     4    11    1
    12     5    12    1
    13     6    13    1
    14     9    14    1
    15     9    15    1
    16    10    16    1
@<TRIPOS>SUBSTRUCTURE
     1 UNL1        1 TEMP              0 ****  ****    0 ROOT


##########                                Name:                  29
##########                DOCK_Rotatable_Bonds:                   3
##########                         Heavy_Atoms:                  10
##########                    Molecular_Weight:             142.111
##########                       Formal_Charge:        -0.000100031
##########                     HBond_Acceptors:                   4
##########                        HBond_Donors:                   2
##########                    Descriptor_Score:           39.519657
##########          Footprint_Similarity_Score:           11.162591
##########                 desc_FPS_vdw_energy:          -19.507507
##########                  desc_FPS_es_energy:           -2.792977
##########              desc_FPS_vdw+es_energy:          -22.300484
##########                  desc_FPS_num_hbond:                   3
##########                    desc_FPS_vdw_fps:            8.857483
##########                     desc_FPS_es_fps:            2.305108
##########                     desc_FPS_hb_fps:            1.732051
##########              desc_FPS_vdw_fp_numres:                 219
##########               desc_FPS_es_fp_numres:                 219
##########               desc_FPS_hb_fp_numres:                 219
##########                 Pharmacophore_Score:           20.000000
##########              desc_FMS_num_match_tot:                   0
##########              desc_FMS_max_match_ref:                  10
##########              desc_FMS_max_match_mol:                   7
##########                 desc_FMS_match_rate:            4.000000
##########                desc_FMS_match_resid:            0.000000
##########    desc_FMS_num_hydrophobic_matched:                   0
##########          desc_FMS_num_donor_matched:                   0
##########       desc_FMS_num_acceptor_matched:                   0
##########       desc_FMS_num_aromatic_matched:                   0
##########       desc_FMS_num_positive_matched:                   0
##########       desc_FMS_num_negative_matched:                   0
##########           desc_FMS_num_ring_matched:                   0
########## Hungarian_Matching_Similarity_Score:            8.357066
##########       desc_HMS_num_unmtchd_hvy_atms:                  17
##########           desc_HMS_num_ref_hvy_atms:                  23
##########        desc_HMS_rmsd_mtchd_hvy_atms:            9.661414
##########               Property_Volume_Score:            0.000000
##########               desc_VOS_geometric_vo:            0.000000
##########                desc_VOS_hvy_atom_vo:            0.000000
##########            desc_VOS_pos_chrg_atm_vo:            0.000000
##########            desc_VOS_neg_chrg_atm_vo:            0.000000
##########         desc_VOS_hydrophobic_atm_vo:            0.000000
##########         desc_VOS_hydrophilic_atm_vo:            0.000000
##########           Internal_energy_repulsive:            1.145453

@<TRIPOS>MOLECULE
29
 16 16 1 0 0
SMALL
GASTEIGER


@<TRIPOS>ATOM
      1 O          21.1884    8.6095   42.7310 O.2     1  UNL1       -0.2838
      2 C          21.9185    8.7903   41.7744 C.ar    1  UNL1        0.2263
      3 C          22.8653    9.9055   41.6755 C.ar    1  UNL1        0.1992
      4 C          21.9270    7.9202   40.5992 C.ar    1  UNL1        0.0292
      5 O          22.8727   10.7398   42.7396 O.3     1  UNL1       -0.5012
      6 C          23.6695   10.0727   40.5701 C.ar    1  UNL1        0.1372
      7 C          22.7638    8.1645   39.5322 C.ar    1  UNL1        0.1339
      8 O          23.6635    9.2197   39.4735 O.2     1  UNL1       -0.4616
      9 C          22.7312    7.2560   38.3333 C.3     1  UNL1        0.1020
     10 O          21.4332    6.6853   38.1685 O.3     1  UNL1       -0.3873
     11 H          21.2363    7.0831   40.6196 H       1  UNL1        0.0691
     12 H          23.5219   11.4452   42.5388 H       1  UNL1        0.2924
     13 H          24.3911   10.8655   40.4135 H       1  UNL1        0.1069
     14 H          23.4541    6.4453   38.4585 H       1  UNL1        0.0638
     15 H          22.9919    7.7959   37.4188 H       1  UNL1        0.0638
     16 H          20.8017    7.4165   38.0281 H       1  UNL1        0.2100
@<TRIPOS>BOND
     1     1     2    2
     2     2     3   ar
     3     2     4   ar
     4     3     5    1
     5     3     6   ar
     6     4     7   ar
     7     6     8   ar
     8     7     9    1
     9     9    10    1
    10     7     8   ar
    11     4    11    1
    12     5    12    1
    13     6    13    1
    14     9    14    1
    15     9    15    1
    16    10    16    1
@<TRIPOS>SUBSTRUCTURE
     1 UNL1        1 TEMP              0 ****  ****    0 ROOT


##########                                Name:                  32
##########                DOCK_Rotatable_Bonds:                   3
##########                         Heavy_Atoms:                  12
##########                    Molecular_Weight:             166.177
##########                       Formal_Charge:         9.99533e-05
##########                     HBond_Acceptors:                   3
##########                        HBond_Donors:                   0
##########                    Descriptor_Score:           40.127804
##########          Footprint_Similarity_Score:           11.978088
##########                 desc_FPS_vdw_energy:          -24.099556
##########                  desc_FPS_es_energy:           -0.071956
##########              desc_FPS_vdw+es_energy:          -24.171513
##########                  desc_FPS_num_hbond:                   1
##########                    desc_FPS_vdw_fps:            9.879493
##########                     desc_FPS_es_fps:            2.098595
##########                     desc_FPS_hb_fps:            1.000000
##########              desc_FPS_vdw_fp_numres:                 219
##########               desc_FPS_es_fp_numres:                 219
##########               desc_FPS_hb_fp_numres:                 219
##########                 Pharmacophore_Score:           20.000000
##########              desc_FMS_num_match_tot:                   0
##########              desc_FMS_max_match_ref:                  10
##########              desc_FMS_max_match_mol:                   4
##########                 desc_FMS_match_rate:            4.000000
##########                desc_FMS_match_resid:            0.000000
##########    desc_FMS_num_hydrophobic_matched:                   0
##########          desc_FMS_num_donor_matched:                   0
##########       desc_FMS_num_acceptor_matched:                   0
##########       desc_FMS_num_aromatic_matched:                   0
##########       desc_FMS_num_positive_matched:                   0
##########       desc_FMS_num_negative_matched:                   0
##########           desc_FMS_num_ring_matched:                   0
########## Hungarian_Matching_Similarity_Score:            8.149716
##########       desc_HMS_num_unmtchd_hvy_atms:                  15
##########           desc_HMS_num_ref_hvy_atms:                  23
##########        desc_HMS_rmsd_mtchd_hvy_atms:            9.888847
##########               Property_Volume_Score:            0.000000
##########               desc_VOS_geometric_vo:            0.000000
##########                desc_VOS_hvy_atom_vo:            0.000000
##########            desc_VOS_pos_chrg_atm_vo:            0.000000
##########            desc_VOS_neg_chrg_atm_vo:            0.000000
##########         desc_VOS_hydrophobic_atm_vo:            0.000000
##########         desc_VOS_hydrophilic_atm_vo:            0.000000
##########           Internal_energy_repulsive:           14.009769

@<TRIPOS>MOLECULE
32
 22 22 1 0 0
SMALL
GASTEIGER


@<TRIPOS>ATOM
      1 O          21.5911    7.0231   38.2154 O.2     1  UNL1       -0.2448
      2 C          22.4935    7.7963   38.4809 C.2     1  UNL1        0.3425
      3 O          23.5072    8.0149   37.6056 O.3     1  UNL1       -0.4644
      4 C          22.5638    8.5975   39.7622 C.ar    1  UNL1        0.1005
      5 C          23.5109    7.3029   36.3444 C.3     1  UNL1        0.0820
      6 C          23.1630    9.8725   39.8331 C.ar    1  UNL1        0.1341
      7 C          22.0144    8.0627   40.9368 C.ar    1  UNL1       -0.0442
      8 O          23.7233   10.4848   38.7301 O.3     1  UNL1       -0.4943
      9 C          23.1945   10.5763   41.0377 C.ar    1  UNL1       -0.0191
     10 C          22.0529    8.7661   42.1384 C.ar    1  UNL1       -0.0608
     11 C          24.1790   11.8527   38.8260 C.3     1  UNL1        0.0788
     12 C          22.6433   10.0243   42.1909 C.ar    1  UNL1       -0.0583
     13 H          24.3917    7.5989   35.7703 H       1  UNL1        0.0661
     14 H          22.6059    7.5537   35.7835 H       1  UNL1        0.0661
     15 H          23.5406    6.2260   36.5348 H       1  UNL1        0.0661
     16 H          21.5418    7.0839   40.9288 H       1  UNL1        0.0627
     17 H          23.6517   11.5609   41.0786 H       1  UNL1        0.0654
     18 H          21.6186    8.3317   43.0356 H       1  UNL1        0.0618
     19 H          23.3234   12.5292   38.7551 H       1  UNL1        0.0660
     20 H          24.8749   12.0486   38.0059 H       1  UNL1        0.0660
     21 H          24.6934   12.0032   39.7796 H       1  UNL1        0.0660
     22 H          22.6708   10.5759   43.1271 H       1  UNL1        0.0619
@<TRIPOS>BOND
     1     1     2    2
     2     2     3    1
     3     2     4    1
     4     3     5    1
     5     4     6   ar
     6     4     7   ar
     7     6     8    1
     8     6     9   ar
     9     7    10   ar
    10     8    11    1
    11     9    12   ar
    12    10    12   ar
    13     5    13    1
    14     5    14    1
    15     5    15    1
    16     7    16    1
    17     9    17    1
    18    10    18    1
    19    11    19    1
    20    11    20    1
    21    11    21    1
    22    12    22    1
@<TRIPOS>SUBSTRUCTURE
     1 UNL1        1 TEMP              0 ****  ****    0 ROOT


##########                                Name:                  32
##########                DOCK_Rotatable_Bonds:                   3
##########                         Heavy_Atoms:                  12
##########                    Molecular_Weight:             166.177
##########                       Formal_Charge:         9.99533e-05
##########                     HBond_Acceptors:                   3
##########                        HBond_Donors:                   0
##########                    Descriptor_Score:           40.451912
##########          Footprint_Similarity_Score:           11.649397
##########                 desc_FPS_vdw_energy:          -19.824759
##########                  desc_FPS_es_energy:           -2.352735
##########              desc_FPS_vdw+es_energy:          -22.177494
##########                  desc_FPS_num_hbond:                   0
##########                    desc_FPS_vdw_fps:            9.200348
##########                     desc_FPS_es_fps:            2.449048
##########                     desc_FPS_hb_fps:            0.000000
##########              desc_FPS_vdw_fp_numres:                 219
##########               desc_FPS_es_fp_numres:                 219
##########               desc_FPS_hb_fp_numres:                 219
##########                 Pharmacophore_Score:           20.000000
##########              desc_FMS_num_match_tot:                   0
##########              desc_FMS_max_match_ref:                  10
##########              desc_FMS_max_match_mol:                   4
##########                 desc_FMS_match_rate:            4.000000
##########                desc_FMS_match_resid:            0.000000
##########    desc_FMS_num_hydrophobic_matched:                   0
##########          desc_FMS_num_donor_matched:                   0
##########       desc_FMS_num_acceptor_matched:                   0
##########       desc_FMS_num_aromatic_matched:                   0
##########       desc_FMS_num_positive_matched:                   0
##########       desc_FMS_num_negative_matched:                   0
##########           desc_FMS_num_ring_matched:                   0
########## Hungarian_Matching_Similarity_Score:            8.802514
##########       desc_HMS_num_unmtchd_hvy_atms:                  15
##########           desc_HMS_num_ref_hvy_atms:                  23
##########        desc_HMS_rmsd_mtchd_hvy_atms:           10.541644
##########               Property_Volume_Score:            0.000000
##########               desc_VOS_geometric_vo:            0.000000
##########                desc_VOS_hvy_atom_vo:            0.000000
##########            desc_VOS_pos_chrg_atm_vo:            0.000000
##########            desc_VOS_neg_chrg_atm_vo:            0.000000
##########         desc_VOS_hydrophobic_atm_vo:            0.000000
##########         desc_VOS_hydrophilic_atm_vo:            0.000000
##########           Internal_energy_repulsive:           15.076259

@<TRIPOS>MOLECULE
32
 22 22 1 0 0
SMALL
GASTEIGER


@<TRIPOS>ATOM
      1 O          26.0799    9.9069   39.5111 O.2     1  UNL1       -0.2448
      2 C          24.9693   10.3572   39.7264 C.2     1  UNL1        0.3425
      3 O          24.6917   11.6675   39.5086 O.3     1  UNL1       -0.4644
      4 C          23.8047    9.5238   40.2141 C.ar    1  UNL1        0.1005
      5 C          23.4065   12.1907   39.9235 C.3     1  UNL1        0.0820
      6 C          23.0906    8.6443   39.3736 C.ar    1  UNL1        0.1341
      7 C          23.4070    9.6194   41.5558 C.ar    1  UNL1       -0.0442
      8 O          23.4115    8.4762   38.0417 O.3     1  UNL1       -0.4943
      9 C          22.0287    7.8897   39.8738 C.ar    1  UNL1       -0.0191
     10 C          22.3429    8.8685   42.0498 C.ar    1  UNL1       -0.0608
     11 C          22.7418    7.4560   37.2680 C.3     1  UNL1        0.0788
     12 C          21.6517    8.0022   41.2093 C.ar    1  UNL1       -0.0583
     13 H          23.3560   13.2526   39.6729 H       1  UNL1        0.0661
     14 H          23.2946   12.0630   41.0042 H       1  UNL1        0.0661
     15 H          22.6092   11.6515   39.4036 H       1  UNL1        0.0661
     16 H          23.9290   10.2834   42.2399 H       1  UNL1        0.0627
     17 H          21.4910    7.2098   39.2190 H       1  UNL1        0.0654
     18 H          22.0542    8.9580   43.0942 H       1  UNL1        0.0618
     19 H          23.1839    6.4808   37.4878 H       1  UNL1        0.0660
     20 H          22.8620    7.6861   36.2059 H       1  UNL1        0.0660
     21 H          21.6766    7.4454   37.5167 H       1  UNL1        0.0660
     22 H          20.8235    7.4129   41.5942 H       1  UNL1        0.0619
@<TRIPOS>BOND
     1     1     2    2
     2     2     3    1
     3     2     4    1
     4     3     5    1
     5     4     6   ar
     6     4     7   ar
     7     6     8    1
     8     6     9   ar
     9     7    10   ar
    10     8    11    1
    11     9    12   ar
    12    10    12   ar
    13     5    13    1
    14     5    14    1
    15     5    15    1
    16     7    16    1
    17     9    17    1
    18    10    18    1
    19    11    19    1
    20    11    20    1
    21    11    21    1
    22    12    22    1
@<TRIPOS>SUBSTRUCTURE
     1 UNL1        1 TEMP              0 ****  ****    0 ROOT


##########                                Name:                  32
##########                DOCK_Rotatable_Bonds:                   3
##########                         Heavy_Atoms:                  12
##########                    Molecular_Weight:             166.177
##########                       Formal_Charge:         9.99533e-05
##########                     HBond_Acceptors:                   3
##########                        HBond_Donors:                   0
##########                    Descriptor_Score:           38.336655
##########          Footprint_Similarity_Score:           10.584706
##########                 desc_FPS_vdw_energy:          -19.566135
##########                  desc_FPS_es_energy:           -0.200421
##########              desc_FPS_vdw+es_energy:          -19.766556
##########                  desc_FPS_num_hbond:                   0
##########                    desc_FPS_vdw_fps:            8.503934
##########                     desc_FPS_es_fps:            2.080773
##########                     desc_FPS_hb_fps:            0.000000
##########              desc_FPS_vdw_fp_numres:                 219
##########               desc_FPS_es_fp_numres:                 219
##########               desc_FPS_hb_fp_numres:                 219
##########                 Pharmacophore_Score:           20.000000
##########              desc_FMS_num_match_tot:                   0
##########              desc_FMS_max_match_ref:                  10
##########              desc_FMS_max_match_mol:                   4
##########                 desc_FMS_match_rate:            4.000000
##########                desc_FMS_match_resid:            0.000000
##########    desc_FMS_num_hydrophobic_matched:                   0
##########          desc_FMS_num_donor_matched:                   0
##########       desc_FMS_num_acceptor_matched:                   0
##########       desc_FMS_num_aromatic_matched:                   0
##########       desc_FMS_num_positive_matched:                   0
##########       desc_FMS_num_negative_matched:                   0
##########           desc_FMS_num_ring_matched:                   0
########## Hungarian_Matching_Similarity_Score:            7.751951
##########       desc_HMS_num_unmtchd_hvy_atms:                  15
##########           desc_HMS_num_ref_hvy_atms:                  23
##########        desc_HMS_rmsd_mtchd_hvy_atms:            9.491081
##########               Property_Volume_Score:            0.000000
##########               desc_VOS_geometric_vo:            0.000000
##########                desc_VOS_hvy_atom_vo:            0.000000
##########            desc_VOS_pos_chrg_atm_vo:            0.000000
##########            desc_VOS_neg_chrg_atm_vo:            0.000000
##########         desc_VOS_hydrophobic_atm_vo:            0.000000
##########         desc_VOS_hydrophilic_atm_vo:            0.000000
##########           Internal_energy_repulsive:           10.039646

@<TRIPOS>MOLECULE
32
 22 22 1 0 0
SMALL
GASTEIGER


@<TRIPOS>ATOM
      1 O          23.7070   13.3826   41.2067 O.2     1  UNL1       -0.2448
      2 C          23.2719   12.2718   41.4506 C.2     1  UNL1        0.3425
      3 O          22.8031   11.9601   42.6853 O.3     1  UNL1       -0.4644
      4 C          23.1793   11.1621   40.4265 C.ar    1  UNL1        0.1005
      5 C          23.0453   12.8770   43.7799 C.3     1  UNL1        0.0820
      6 C          22.5895    9.9119   40.7071 C.ar    1  UNL1        0.1341
      7 C          23.6976   11.3710   39.1399 C.ar    1  UNL1       -0.0442
      8 O          22.0456    9.6149   41.9406 O.3     1  UNL1       -0.4943
      9 C          22.5201    8.9231   39.7249 C.ar    1  UNL1       -0.0191
     10 C          23.6313   10.3793   38.1640 C.ar    1  UNL1       -0.0608
     11 C          21.7188    8.2459   42.2671 C.3     1  UNL1        0.0788
     12 C          23.0424    9.1533   38.4550 C.ar    1  UNL1       -0.0583
     13 H          22.6014   12.4700   44.6910 H       1  UNL1        0.0661
     14 H          22.5897   13.8446   43.5502 H       1  UNL1        0.0661
     15 H          24.1234   13.0004   43.9191 H       1  UNL1        0.0661
     16 H          24.1603   12.3192   38.8788 H       1  UNL1        0.0627
     17 H          22.0565    7.9667   39.9501 H       1  UNL1        0.0654
     18 H          24.0382   10.5652   37.1730 H       1  UNL1        0.0618
     19 H          20.7717    7.9730   41.7944 H       1  UNL1        0.0660
     20 H          21.6299    8.1561   43.3531 H       1  UNL1        0.0660
     21 H          22.5144    7.5833   41.9142 H       1  UNL1        0.0660
     22 H          22.9866    8.3799   37.6934 H       1  UNL1        0.0619
@<TRIPOS>BOND
     1     1     2    2
     2     2     3    1
     3     2     4    1
     4     3     5    1
     5     4     6   ar
     6     4     7   ar
     7     6     8    1
     8     6     9   ar
     9     7    10   ar
    10     8    11    1
    11     9    12   ar
    12    10    12   ar
    13     5    13    1
    14     5    14    1
    15     5    15    1
    16     7    16    1
    17     9    17    1
    18    10    18    1
    19    11    19    1
    20    11    20    1
    21    11    21    1
    22    12    22    1
@<TRIPOS>SUBSTRUCTURE
     1 UNL1        1 TEMP              0 ****  ****    0 ROOT


##########                                Name:                  33
##########                DOCK_Rotatable_Bonds:                   3
##########                         Heavy_Atoms:                  17
##########                    Molecular_Weight:             232.239
##########                       Formal_Charge:         8.56817e-08
##########                     HBond_Acceptors:                   5
##########                        HBond_Donors:                   1
##########                    Descriptor_Score:           41.373604
##########          Footprint_Similarity_Score:           12.607794
##########                 desc_FPS_vdw_energy:          -28.833578
##########                  desc_FPS_es_energy:           -0.371630
##########              desc_FPS_vdw+es_energy:          -29.205208
##########                  desc_FPS_num_hbond:                   0
##########                    desc_FPS_vdw_fps:           10.651688
##########                     desc_FPS_es_fps:            1.956107
##########                     desc_FPS_hb_fps:            0.000000
##########              desc_FPS_vdw_fp_numres:                 219
##########               desc_FPS_es_fp_numres:                 219
##########               desc_FPS_hb_fp_numres:                 219
##########                 Pharmacophore_Score:           20.000000
##########              desc_FMS_num_match_tot:                   0
##########              desc_FMS_max_match_ref:                  10
##########              desc_FMS_max_match_mol:                   9
##########                 desc_FMS_match_rate:            4.000000
##########                desc_FMS_match_resid:            0.000000
##########    desc_FMS_num_hydrophobic_matched:                   0
##########          desc_FMS_num_donor_matched:                   0
##########       desc_FMS_num_acceptor_matched:                   0
##########       desc_FMS_num_aromatic_matched:                   0
##########       desc_FMS_num_positive_matched:                   0
##########       desc_FMS_num_negative_matched:                   0
##########           desc_FMS_num_ring_matched:                   0
########## Hungarian_Matching_Similarity_Score:            8.765810
##########       desc_HMS_num_unmtchd_hvy_atms:                  16
##########           desc_HMS_num_ref_hvy_atms:                  23
##########        desc_HMS_rmsd_mtchd_hvy_atms:           10.287549
##########               Property_Volume_Score:            0.000000
##########               desc_VOS_geometric_vo:            0.000000
##########                desc_VOS_hvy_atom_vo:            0.000000
##########            desc_VOS_pos_chrg_atm_vo:            0.000000
##########            desc_VOS_neg_chrg_atm_vo:            0.000000
##########         desc_VOS_hydrophobic_atm_vo:            0.000000
##########         desc_VOS_hydrophilic_atm_vo:            0.000000
##########           Internal_energy_repulsive:            5.966438

@<TRIPOS>MOLECULE
33
 29 30 1 0 0
SMALL
GASTEIGER


@<TRIPOS>ATOM
      1 O          22.0427    9.4814   42.6750 O.2     1  UNL1       -0.2862
      2 C          22.5331    9.9608   41.6684 C.ar    1  UNL1        0.2049
      3 C          23.0935   11.3158   41.5753 C.ar    1  UNL1        0.1221
      4 C          22.5925    9.2127   40.4200 C.ar    1  UNL1        0.0650
      5 C          23.1076   12.2535   42.7306 C.2     1  UNL1        0.3420
      6 C          23.6396   11.7983   40.3999 C.ar    1  UNL1        0.0242
      7 C          23.1505    9.7125   39.2412 C.ar    1  UNL1        0.1446
      8 C          22.0506    7.8633   40.3316 C.ar    1  UNL1       -0.0457
      9 O          22.8100   11.9392   43.8663 O.2     1  UNL1       -0.2449
     10 O          23.4646   13.4886   42.4901 O.3     1  UNL1       -0.4770
     11 N          23.6998   11.0066   39.2491 N.ar    1  UNL1       -0.3312
     12 N          23.1850    9.1278   38.2870 N.ar    1  UNL1       -0.2341
     13 C          22.1218    7.1906   39.1159 C.ar    1  UNL1       -0.0398
     14 C          24.3338   11.6049   38.0557 C.3     1  UNL1        0.0218
     15 C          22.7215    7.8792   38.0696 C.ar    1  UNL1        0.0406
     16 C          25.8440   11.3189   37.9733 C.3     1  UNL1       -0.0470
     17 C          22.8721    7.2818   36.6833 C.3     1  UNL1       -0.0223
     18 H          24.0575   12.7933   40.2971 H       1  UNL1        0.0819
     19 H          21.5905    7.3728   41.1858 H       1  UNL1        0.0626
     20 H          23.6430   13.5565   41.5282 H       1  UNL1        0.2954
     21 H          21.7293    6.1837   38.9943 H       1  UNL1        0.0636
     22 H          24.1728   12.6869   38.0529 H       1  UNL1        0.0489
     23 H          23.8537   11.2088   37.1561 H       1  UNL1        0.0489
     24 H          26.3616   11.7250   38.8453 H       1  UNL1        0.0247
     25 H          26.2665   11.7794   37.0778 H       1  UNL1        0.0247
     26 H          26.0295   10.2435   37.9287 H       1  UNL1        0.0247
     27 H          23.5097    7.9052   36.0515 H       1  UNL1        0.0292
     28 H          21.8960    7.1912   36.2019 H       1  UNL1        0.0292
     29 H          23.3204    6.2875   36.7438 H       1  UNL1        0.0292
@<TRIPOS>BOND
     1     1     2    2
     2     2     3   ar
     3     2     4   ar
     4     3     5    1
     5     3     6   ar
     6     4     7   ar
     7     4     8   ar
     8     5     9    2
     9     5    10    1
    10     6    11   ar
    11     7    12   ar
    12     8    13   ar
    13    11    14    1
    14    12    15   ar
    15    14    16    1
    16    15    17    1
    17     7    11   ar
    18    13    15   ar
    19     6    18    1
    20     8    19    1
    21    10    20    1
    22    13    21    1
    23    14    22    1
    24    14    23    1
    25    16    24    1
    26    16    25    1
    27    16    26    1
    28    17    27    1
    29    17    28    1
    30    17    29    1
@<TRIPOS>SUBSTRUCTURE
     1 UNL1        1 TEMP              0 ****  ****    0 ROOT


##########                                Name:                  33
##########                DOCK_Rotatable_Bonds:                   3
##########                         Heavy_Atoms:                  17
##########                    Molecular_Weight:             232.239
##########                       Formal_Charge:         8.56817e-08
##########                     HBond_Acceptors:                   5
##########                        HBond_Donors:                   1
##########                    Descriptor_Score:           41.165886
##########          Footprint_Similarity_Score:           12.431991
##########                 desc_FPS_vdw_energy:          -28.688856
##########                  desc_FPS_es_energy:           -0.859565
##########              desc_FPS_vdw+es_energy:          -29.548422
##########                  desc_FPS_num_hbond:                   0
##########                    desc_FPS_vdw_fps:           10.469545
##########                     desc_FPS_es_fps:            1.962446
##########                     desc_FPS_hb_fps:            0.000000
##########              desc_FPS_vdw_fp_numres:                 219
##########               desc_FPS_es_fp_numres:                 219
##########               desc_FPS_hb_fp_numres:                 219
##########                 Pharmacophore_Score:           20.000000
##########              desc_FMS_num_match_tot:                   0
##########              desc_FMS_max_match_ref:                  10
##########              desc_FMS_max_match_mol:                   9
##########                 desc_FMS_match_rate:            4.000000
##########                desc_FMS_match_resid:            0.000000
##########    desc_FMS_num_hydrophobic_matched:                   0
##########          desc_FMS_num_donor_matched:                   0
##########       desc_FMS_num_acceptor_matched:                   0
##########       desc_FMS_num_aromatic_matched:                   0
##########       desc_FMS_num_positive_matched:                   0
##########       desc_FMS_num_negative_matched:                   0
##########           desc_FMS_num_ring_matched:                   0
########## Hungarian_Matching_Similarity_Score:            8.733894
##########       desc_HMS_num_unmtchd_hvy_atms:                  16
##########           desc_HMS_num_ref_hvy_atms:                  23
##########        desc_HMS_rmsd_mtchd_hvy_atms:           10.255634
##########               Property_Volume_Score:            0.000000
##########               desc_VOS_geometric_vo:            0.000000
##########                desc_VOS_hvy_atom_vo:            0.000000
##########            desc_VOS_pos_chrg_atm_vo:            0.000000
##########            desc_VOS_neg_chrg_atm_vo:            0.000000
##########         desc_VOS_hydrophobic_atm_vo:            0.000000
##########         desc_VOS_hydrophilic_atm_vo:            0.000000
##########           Internal_energy_repulsive:            5.537645

@<TRIPOS>MOLECULE
33
 29 30 1 0 0
SMALL
GASTEIGER


@<TRIPOS>ATOM
      1 O          22.2132    9.6241   42.6954 O.2     1  UNL1       -0.2862
      2 C          22.6496   10.1022   41.6636 C.ar    1  UNL1        0.2049
      3 C          23.1169   11.4874   41.5163 C.ar    1  UNL1        0.1221
      4 C          22.7327    9.3200   40.4376 C.ar    1  UNL1        0.0650
      5 C          23.0927   12.4605   42.6418 C.2     1  UNL1        0.3420
      6 C          23.6052   11.9668   40.3146 C.ar    1  UNL1        0.0242
      7 C          23.2317    9.8174   39.2317 C.ar    1  UNL1        0.1446
      8 C          22.2798    7.9357   40.4030 C.ar    1  UNL1       -0.0457
      9 O          22.9866   13.6630   42.5000 O.2     1  UNL1       -0.2449
     10 O          23.1934   11.9737   43.8516 O.3     1  UNL1       -0.4770
     11 N          23.6939   11.1443   39.1874 N.ar    1  UNL1       -0.3312
     12 N          23.2851    9.2058   38.2953 N.ar    1  UNL1       -0.2341
     13 C          22.3703    7.2306   39.2071 C.ar    1  UNL1       -0.0398
     14 C          24.2619   11.7444   37.9621 C.3     1  UNL1        0.0218
     15 C          22.9011    7.9232   38.1268 C.ar    1  UNL1        0.0406
     16 C          25.7736   11.4929   37.8177 C.3     1  UNL1       -0.0470
     17 C          23.0622    7.2928   36.7564 C.3     1  UNL1       -0.0223
     18 H          23.9540   12.9833   40.1718 H       1  UNL1        0.0819
     19 H          21.8711    7.4437   41.2821 H       1  UNL1        0.0626
     20 H          23.2616   10.9990   43.7669 H       1  UNL1        0.2954
     21 H          22.0430    6.1967   39.1253 H       1  UNL1        0.0636
     22 H          24.0753   12.8222   37.9557 H       1  UNL1        0.0489
     23 H          23.7534   11.3276   37.0879 H       1  UNL1        0.0489
     24 H          26.3182   11.9203   38.6627 H       1  UNL1        0.0247
     25 H          26.1465   11.9536   36.9005 H       1  UNL1        0.0247
     26 H          25.9827   10.4217   37.7756 H       1  UNL1        0.0247
     27 H          23.6437    7.9363   36.0914 H       1  UNL1        0.0292
     28 H          22.0844    7.1230   36.3004 H       1  UNL1        0.0292
     29 H          23.5767    6.3326   36.8371 H       1  UNL1        0.0292
@<TRIPOS>BOND
     1     1     2    2
     2     2     3   ar
     3     2     4   ar
     4     3     5    1
     5     3     6   ar
     6     4     7   ar
     7     4     8   ar
     8     5     9    2
     9     5    10    1
    10     6    11   ar
    11     7    12   ar
    12     8    13   ar
    13    11    14    1
    14    12    15   ar
    15    14    16    1
    16    15    17    1
    17     7    11   ar
    18    13    15   ar
    19     6    18    1
    20     8    19    1
    21    10    20    1
    22    13    21    1
    23    14    22    1
    24    14    23    1
    25    16    24    1
    26    16    25    1
    27    16    26    1
    28    17    27    1
    29    17    28    1
    30    17    29    1
@<TRIPOS>SUBSTRUCTURE
     1 UNL1        1 TEMP              0 ****  ****    0 ROOT


##########                                Name:                  33
##########                DOCK_Rotatable_Bonds:                   3
##########                         Heavy_Atoms:                  17
##########                    Molecular_Weight:             232.239
##########                       Formal_Charge:         8.56817e-08
##########                     HBond_Acceptors:                   5
##########                        HBond_Donors:                   1
##########                    Descriptor_Score:           41.321373
##########          Footprint_Similarity_Score:           12.541134
##########                 desc_FPS_vdw_energy:          -28.976070
##########                  desc_FPS_es_energy:           -0.453123
##########              desc_FPS_vdw+es_energy:          -29.429193
##########                  desc_FPS_num_hbond:                   0
##########                    desc_FPS_vdw_fps:           10.589575
##########                     desc_FPS_es_fps:            1.951559
##########                     desc_FPS_hb_fps:            0.000000
##########              desc_FPS_vdw_fp_numres:                 219
##########               desc_FPS_es_fp_numres:                 219
##########               desc_FPS_hb_fp_numres:                 219
##########                 Pharmacophore_Score:           20.000000
##########              desc_FMS_num_match_tot:                   0
##########              desc_FMS_max_match_ref:                  10
##########              desc_FMS_max_match_mol:                   9
##########                 desc_FMS_match_rate:            4.000000
##########                desc_FMS_match_resid:            0.000000
##########    desc_FMS_num_hydrophobic_matched:                   0
##########          desc_FMS_num_donor_matched:                   0
##########       desc_FMS_num_acceptor_matched:                   0
##########       desc_FMS_num_aromatic_matched:                   0
##########       desc_FMS_num_positive_matched:                   0
##########       desc_FMS_num_negative_matched:                   0
##########           desc_FMS_num_ring_matched:                   0
########## Hungarian_Matching_Similarity_Score:            8.780237
##########       desc_HMS_num_unmtchd_hvy_atms:                  16
##########           desc_HMS_num_ref_hvy_atms:                  23
##########        desc_HMS_rmsd_mtchd_hvy_atms:           10.301976
##########               Property_Volume_Score:            0.000000
##########               desc_VOS_geometric_vo:            0.000000
##########                desc_VOS_hvy_atom_vo:            0.000000
##########            desc_VOS_pos_chrg_atm_vo:            0.000000
##########            desc_VOS_neg_chrg_atm_vo:            0.000000
##########         desc_VOS_hydrophobic_atm_vo:            0.000000
##########         desc_VOS_hydrophilic_atm_vo:            0.000000
##########           Internal_energy_repulsive:            5.991947

@<TRIPOS>MOLECULE
33
 29 30 1 0 0
SMALL
GASTEIGER


@<TRIPOS>ATOM
      1 O          22.1290    9.4797   42.6836 O.2     1  UNL1       -0.2862
      2 C          22.5796    9.9682   41.6628 C.ar    1  UNL1        0.2049
      3 C          23.0848   11.3430   41.5463 C.ar    1  UNL1        0.1221
      4 C          22.6426    9.2112   40.4199 C.ar    1  UNL1        0.0650
      5 C          23.0859   12.2915   42.6929 C.2     1  UNL1        0.3420
      6 C          23.5874   11.8352   40.3557 C.ar    1  UNL1        0.0242
      7 C          23.1565    9.7211   39.2256 C.ar    1  UNL1        0.1446
      8 C          22.1521    7.8410   40.3546 C.ar    1  UNL1       -0.0457
      9 O          22.8181   11.9779   43.8362 O.2     1  UNL1       -0.2449
     10 O          23.3964   13.5357   42.4355 O.3     1  UNL1       -0.4770
     11 N          23.6550   11.0356   39.2107 N.ar    1  UNL1       -0.3312
     12 N          23.1942    9.1291   38.2759 N.ar    1  UNL1       -0.2341
     13 C          22.2246    7.1600   39.1435 C.ar    1  UNL1       -0.0398
     14 C          24.2406   11.6466   37.9993 C.3     1  UNL1        0.0218
     15 C          22.7754    7.8615   38.0790 C.ar    1  UNL1        0.0406
     16 C          25.7635   11.4449   37.9034 C.3     1  UNL1       -0.0470
     17 C          22.9208    7.2572   36.6952 C.3     1  UNL1       -0.0223
     18 H          23.9641   12.8446   40.2355 H       1  UNL1        0.0819
     19 H          21.7291    7.3411   41.2224 H       1  UNL1        0.0626
     20 H          23.6228   13.5866   41.4827 H       1  UNL1        0.2954
     21 H          21.8692    6.1376   39.0388 H       1  UNL1        0.0636
     22 H          24.0186   12.7176   37.9793 H       1  UNL1        0.0489
     23 H          23.7736   11.2077   37.1128 H       1  UNL1        0.0489
     24 H          26.2671   11.8954   38.7617 H       1  UNL1        0.0247
     25 H          26.1493   11.9120   36.9948 H       1  UNL1        0.0247
     26 H          26.0092   10.3809   37.8755 H       1  UNL1        0.0247
     27 H          23.5205    7.8989   36.0448 H       1  UNL1        0.0292
     28 H          21.9393    7.1243   36.2350 H       1  UNL1        0.0292
     29 H          23.4087    6.2817   36.7550 H       1  UNL1        0.0292
@<TRIPOS>BOND
     1     1     2    2
     2     2     3   ar
     3     2     4   ar
     4     3     5    1
     5     3     6   ar
     6     4     7   ar
     7     4     8   ar
     8     5     9    2
     9     5    10    1
    10     6    11   ar
    11     7    12   ar
    12     8    13   ar
    13    11    14    1
    14    12    15   ar
    15    14    16    1
    16    15    17    1
    17     7    11   ar
    18    13    15   ar
    19     6    18    1
    20     8    19    1
    21    10    20    1
    22    13    21    1
    23    14    22    1
    24    14    23    1
    25    16    24    1
    26    16    25    1
    27    16    26    1
    28    17    27    1
    29    17    28    1
    30    17    29    1
@<TRIPOS>SUBSTRUCTURE
     1 UNL1        1 TEMP              0 ****  ****    0 ROOT


##########                                Name:                  34
##########                DOCK_Rotatable_Bonds:                   4
##########                         Heavy_Atoms:                  30
##########                    Molecular_Weight:             413.427
##########                       Formal_Charge:         0.000399768
##########                     HBond_Acceptors:                   8
##########                        HBond_Donors:                   0
##########                    Descriptor_Score:           28.152267
##########          Footprint_Similarity_Score:            6.259233
##########                 desc_FPS_vdw_energy:          -33.089031
##########                  desc_FPS_es_energy:           -0.586737
##########              desc_FPS_vdw+es_energy:          -33.675770
##########                  desc_FPS_num_hbond:                   0
##########                    desc_FPS_vdw_fps:            4.398171
##########                     desc_FPS_es_fps:            1.861061
##########                     desc_FPS_hb_fps:            0.000000
##########              desc_FPS_vdw_fp_numres:                 219
##########               desc_FPS_es_fp_numres:                 219
##########               desc_FPS_hb_fp_numres:                 219
##########                 Pharmacophore_Score:           20.000000
##########              desc_FMS_num_match_tot:                   0
##########              desc_FMS_max_match_ref:                  10
##########              desc_FMS_max_match_mol:                  13
##########                 desc_FMS_match_rate:            4.000000
##########                desc_FMS_match_resid:            0.000000
##########    desc_FMS_num_hydrophobic_matched:                   0
##########          desc_FMS_num_donor_matched:                   0
##########       desc_FMS_num_acceptor_matched:                   0
##########       desc_FMS_num_aromatic_matched:                   0
##########       desc_FMS_num_positive_matched:                   0
##########       desc_FMS_num_negative_matched:                   0
##########           desc_FMS_num_ring_matched:                   0
########## Hungarian_Matching_Similarity_Score:            2.245141
##########       desc_HMS_num_unmtchd_hvy_atms:                  21
##########           desc_HMS_num_ref_hvy_atms:                  23
##########        desc_HMS_rmsd_mtchd_hvy_atms:            2.679924
##########               Property_Volume_Score:            0.352107
##########               desc_VOS_geometric_vo:            0.628502
##########                desc_VOS_hvy_atom_vo:            0.655048
##########            desc_VOS_pos_chrg_atm_vo:            0.207450
##########            desc_VOS_neg_chrg_atm_vo:            0.285455
##########         desc_VOS_hydrophobic_atm_vo:            0.336186
##########         desc_VOS_hydrophilic_atm_vo:            0.000000
##########           Internal_energy_repulsive:           13.158302

@<TRIPOS>MOLECULE
34
 53 57 1 0 0
SMALL
GASTEIGER


@<TRIPOS>ATOM
      1 O          16.4629   13.2172   40.7405 O.2     1  UNL1       -0.2448
      2 C          16.0199   13.8525   41.6693 C.2     1  UNL1        0.3439
      3 O          14.7046   14.1058   41.8016 O.3     1  UNL1       -0.4510
      4 C          16.6990   14.4940   42.8006 C.ar    1  UNL1        0.1108
      5 C          14.3974   14.8276   43.0249 C.3     1  UNL1        0.1489
      6 C          18.1113   14.5928   43.1787 C.ar    1  UNL1        0.1758
      7 C          15.7450   15.1279   43.6465 C.ar    1  UNL1        0.0123
      8 C          13.4714   13.9480   43.9070 C.3     1  UNL1        0.0808
      9 O          19.2270   14.0929   42.5127 O.3     1  UNL1       -0.4906
     10 C          18.4007   15.3080   44.3753 C.ar    1  UNL1        0.1623
     11 C          16.0602   15.8299   44.7923 C.ar    1  UNL1       -0.0505
     12 N          13.8337   12.4945   43.7568 N.3     1  UNL1       -0.2946
     13 C          12.0070   14.3043   43.6087 C.ar    1  UNL1        0.0223
     14 C          19.6097   14.3438   41.1461 C.3     1  UNL1        0.0790
     15 O          19.6714   15.5090   44.9183 O.3     1  UNL1       -0.4914
     16 C          17.3957   15.9042   45.1465 C.ar    1  UNL1       -0.0159
     17 C          12.7290   11.5720   43.3987 C.3     1  UNL1        0.0033
     18 C          14.6056   11.9570   44.9013 C.3     1  UNL1       -0.0120
     19 C          11.4299   15.4968   44.0790 C.ar    1  UNL1        0.1704
     20 C          11.2435   13.4564   42.7973 C.ar    1  UNL1       -0.0342
     21 C          20.8625   14.7118   44.7211 C.3     1  UNL1        0.0790
     22 C          11.8607   12.1710   42.2866 C.3     1  UNL1       -0.0143
     23 O          12.1342   16.5393   44.6703 O.3     1  UNL1       -0.4910
     24 C          10.0258   15.7786   43.8706 C.ar    1  UNL1        0.2079
     25 C           9.9267   13.7711   42.4639 C.ar    1  UNL1       -0.0124
     26 C          12.4143   17.8054   44.0343 C.3     1  UNL1        0.0790
     27 O           9.5218   17.0449   43.7410 O.3     1  UNL1       -0.4489
     28 C           9.2622   14.8961   43.0590 C.ar    1  UNL1        0.1702
     29 C           8.2707   16.9261   43.0140 C.3     1  UNL1        0.2334
     30 O           8.2914   15.6043   42.4090 O.3     1  UNL1       -0.4525
     31 H          13.8885   15.7583   42.7563 H       1  UNL1        0.0805
     32 H          13.6611   14.2044   44.9483 H       1  UNL1        0.0554
     33 H          15.2909   16.2905   45.4055 H       1  UNL1        0.0623
     34 H          20.5780   13.8714   40.9642 H       1  UNL1        0.0660
     35 H          19.7008   15.4204   40.9804 H       1  UNL1        0.0660
     36 H          18.8695   13.9042   40.4729 H       1  UNL1        0.0660
     37 H          17.6729   16.4406   46.0509 H       1  UNL1        0.0655
     38 H          12.1005   11.3908   44.2767 H       1  UNL1        0.0430
     39 H          13.1428   10.6166   43.0648 H       1  UNL1        0.0430
     40 H          15.4883   12.5694   45.0956 H       1  UNL1        0.0391
     41 H          14.9346   10.9367   44.6835 H       1  UNL1        0.0391
     42 H          13.9813   11.9418   45.7994 H       1  UNL1        0.0391
     43 H          21.6786   15.1461   45.3036 H       1  UNL1        0.0660
     44 H          21.1324   14.7146   43.6616 H       1  UNL1        0.0660
     45 H          20.6781   13.6893   45.0615 H       1  UNL1        0.0660
     46 H          11.0836   11.4547   42.0093 H       1  UNL1        0.0326
     47 H          12.4647   12.3659   41.3972 H       1  UNL1        0.0326
     48 H           9.3477   13.1253   41.8098 H       1  UNL1        0.0658
     49 H          13.3532   18.1957   44.4359 H       1  UNL1        0.0660
     50 H          11.6166   18.5130   44.2686 H       1  UNL1        0.0660
     51 H          12.5027   17.6708   42.9532 H       1  UNL1        0.0660
     52 H           8.1743   17.7155   42.2528 H       1  UNL1        0.1166
     53 H           7.4360   16.9734   43.7316 H       1  UNL1        0.1166
@<TRIPOS>BOND
     1     1     2    2
     2     2     3    1
     3     2     4    1
     4     3     5    1
     5     4     6   ar
     6     4     7   ar
     7     5     8    1
     8     6     9    1
     9     6    10   ar
    10     7    11   ar
    11     8    12    1
    12     8    13    1
    13     9    14    1
    14    10    15    1
    15    10    16   ar
    16    12    17    1
    17    12    18    1
    18    13    19   ar
    19    13    20   ar
    20    15    21    1
    21    17    22    1
    22    19    23    1
    23    19    24   ar
    24    20    25   ar
    25    23    26    1
    26    24    27    1
    27    24    28   ar
    28    27    29    1
    29    28    30    1
    30     5     7    1
    31    11    16   ar
    32    20    22    1
    33    25    28   ar
    34    29    30    1
    35     5    31    1
    36     8    32    1
    37    11    33    1
    38    14    34    1
    39    14    35    1
    40    14    36    1
    41    16    37    1
    42    17    38    1
    43    17    39    1
    44    18    40    1
    45    18    41    1
    46    18    42    1
    47    21    43    1
    48    21    44    1
    49    21    45    1
    50    22    46    1
    51    22    47    1
    52    25    48    1
    53    26    49    1
    54    26    50    1
    55    26    51    1
    56    29    52    1
    57    29    53    1
@<TRIPOS>SUBSTRUCTURE
     1 UNL1        1 TEMP              0 ****  ****    0 ROOT


##########                                Name:                  34
##########                DOCK_Rotatable_Bonds:                   4
##########                         Heavy_Atoms:                  30
##########                    Molecular_Weight:             413.427
##########                       Formal_Charge:         0.000399768
##########                     HBond_Acceptors:                   8
##########                        HBond_Donors:                   0
##########                    Descriptor_Score:           33.206638
##########          Footprint_Similarity_Score:            8.263150
##########                 desc_FPS_vdw_energy:          -25.094435
##########                  desc_FPS_es_energy:           -2.454148
##########              desc_FPS_vdw+es_energy:          -27.548584
##########                  desc_FPS_num_hbond:                   0
##########                    desc_FPS_vdw_fps:            6.988937
##########                     desc_FPS_es_fps:            1.274213
##########                     desc_FPS_hb_fps:            0.000000
##########              desc_FPS_vdw_fp_numres:                 219
##########               desc_FPS_es_fp_numres:                 219
##########               desc_FPS_hb_fp_numres:                 219
##########                 Pharmacophore_Score:           20.000000
##########              desc_FMS_num_match_tot:                   0
##########              desc_FMS_max_match_ref:                  10
##########              desc_FMS_max_match_mol:                  13
##########                 desc_FMS_match_rate:            4.000000
##########                desc_FMS_match_resid:            0.000000
##########    desc_FMS_num_hydrophobic_matched:                   0
##########          desc_FMS_num_donor_matched:                   0
##########       desc_FMS_num_acceptor_matched:                   0
##########       desc_FMS_num_aromatic_matched:                   0
##########       desc_FMS_num_positive_matched:                   0
##########       desc_FMS_num_negative_matched:                   0
##########           desc_FMS_num_ring_matched:                   0
########## Hungarian_Matching_Similarity_Score:            5.052807
##########       desc_HMS_num_unmtchd_hvy_atms:                  21
##########           desc_HMS_num_ref_hvy_atms:                  23
##########        desc_HMS_rmsd_mtchd_hvy_atms:            5.487590
##########               Property_Volume_Score:            0.109318
##########               desc_VOS_geometric_vo:            0.182360
##########                desc_VOS_hvy_atom_vo:            0.161524
##########            desc_VOS_pos_chrg_atm_vo:            0.082811
##########            desc_VOS_neg_chrg_atm_vo:            0.074001
##########         desc_VOS_hydrophobic_atm_vo:            0.143988
##########         desc_VOS_hydrophilic_atm_vo:            0.011225
##########           Internal_energy_repulsive:           17.727173

@<TRIPOS>MOLECULE
34
 53 57 1 0 0
SMALL
GASTEIGER


@<TRIPOS>ATOM
      1 O           5.7712   16.8834   45.7986 O.2     1  UNL1       -0.2448
      2 C           6.4280   16.2285   45.0225 C.2     1  UNL1        0.3439
      3 O           6.3668   14.8843   44.9885 O.3     1  UNL1       -0.4510
      4 C           7.4037   16.6420   44.0078 C.ar    1  UNL1        0.1108
      5 C           7.1907   14.3165   43.9347 C.3     1  UNL1        0.1489
      6 C           7.9131   17.9552   43.6035 C.ar    1  UNL1        0.1758
      7 C           7.9184   15.4994   43.3316 C.ar    1  UNL1        0.0123
      8 C           6.2758   13.5562   42.9376 C.3     1  UNL1        0.0808
      9 O           7.5973   19.2079   44.1224 O.3     1  UNL1       -0.4906
     10 C           8.8738   17.9687   42.5529 C.ar    1  UNL1        0.1623
     11 C           8.8641   15.5452   42.3274 C.ar    1  UNL1       -0.0505
     12 N           4.9112   14.1905   42.8932 N.3     1  UNL1       -0.2946
     13 C           6.3037   12.0572   43.2731 C.ar    1  UNL1        0.0223
     14 C           6.3447   19.6179   44.7054 C.3     1  UNL1        0.0790
     15 O           9.4740   19.1072   42.0111 O.3     1  UNL1       -0.4914
     16 C           9.3269   16.7917   41.9448 C.ar    1  UNL1       -0.0159
     17 C           3.7559   13.2882   43.1184 C.3     1  UNL1        0.0033
     18 C           4.6874   15.0268   41.6911 C.3     1  UNL1       -0.0120
     19 C           7.4160   11.2551   42.9640 C.ar    1  UNL1        0.1704
     20 C           5.2258   11.4849   43.9592 C.ar    1  UNL1       -0.0342
     21 C          10.4563   19.1798   40.9514 C.3     1  UNL1        0.0790
     22 C           4.0253   12.3449   44.2961 C.3     1  UNL1       -0.0143
     23 O           8.6428   11.7368   42.5218 O.3     1  UNL1       -0.4910
     24 C           7.3949    9.8276   43.2008 C.ar    1  UNL1        0.2079
     25 C           5.2366   10.1395   44.3248 C.ar    1  UNL1       -0.0124
     26 C           9.8092   11.9023   43.3573 C.3     1  UNL1        0.0790
     27 O           8.5133    9.0954   43.4965 O.3     1  UNL1       -0.4489
     28 C           6.2833    9.2617   43.8826 C.ar    1  UNL1        0.1702
     29 C           8.0629    7.9045   44.1943 C.3     1  UNL1        0.2334
     30 O           6.7008    8.1878   44.6165 O.3     1  UNL1       -0.4525
     31 H           7.9054   13.6254   44.3919 H       1  UNL1        0.0805
     32 H           6.6997   13.6726   41.9411 H       1  UNL1        0.0554
     33 H           9.2189   14.6415   41.8403 H       1  UNL1        0.0623
     34 H           6.4567   20.6346   45.0898 H       1  UNL1        0.0660
     35 H           6.0863   18.9503   45.5314 H       1  UNL1        0.0660
     36 H           5.5661   19.6135   43.9386 H       1  UNL1        0.0660
     37 H          10.0635   16.8595   41.1478 H       1  UNL1        0.0655
     38 H           3.5764   12.6877   42.2207 H       1  UNL1        0.0430
     39 H           2.8611   13.8823   43.3232 H       1  UNL1        0.0430
     40 H           5.4771   15.7732   41.5855 H       1  UNL1        0.0391
     41 H           3.7289   15.5476   41.7718 H       1  UNL1        0.0391
     42 H           4.6730   14.3986   40.7958 H       1  UNL1        0.0391
     43 H          10.7192   20.2272   40.7847 H       1  UNL1        0.0660
     44 H          10.0344   18.7618   40.0334 H       1  UNL1        0.0660
     45 H          11.3509   18.6234   41.2440 H       1  UNL1        0.0660
     46 H           3.1438   11.7235   44.4706 H       1  UNL1        0.0326
     47 H           4.2119   12.9190   45.2068 H       1  UNL1        0.0326
     48 H           4.4113    9.7069   44.8832 H       1  UNL1        0.0658
     49 H          10.4064   12.7276   42.9606 H       1  UNL1        0.0660
     50 H          10.4110   10.9919   43.3239 H       1  UNL1        0.0660
     51 H           9.5070   12.1252   44.3837 H       1  UNL1        0.0660
     52 H           8.7112    7.6758   45.0540 H       1  UNL1        0.1166
     53 H           8.0450    7.0616   43.4851 H       1  UNL1        0.1166
@<TRIPOS>BOND
     1     1     2    2
     2     2     3    1
     3     2     4    1
     4     3     5    1
     5     4     6   ar
     6     4     7   ar
     7     5     8    1
     8     6     9    1
     9     6    10   ar
    10     7    11   ar
    11     8    12    1
    12     8    13    1
    13     9    14    1
    14    10    15    1
    15    10    16   ar
    16    12    17    1
    17    12    18    1
    18    13    19   ar
    19    13    20   ar
    20    15    21    1
    21    17    22    1
    22    19    23    1
    23    19    24   ar
    24    20    25   ar
    25    23    26    1
    26    24    27    1
    27    24    28   ar
    28    27    29    1
    29    28    30    1
    30     5     7    1
    31    11    16   ar
    32    20    22    1
    33    25    28   ar
    34    29    30    1
    35     5    31    1
    36     8    32    1
    37    11    33    1
    38    14    34    1
    39    14    35    1
    40    14    36    1
    41    16    37    1
    42    17    38    1
    43    17    39    1
    44    18    40    1
    45    18    41    1
    46    18    42    1
    47    21    43    1
    48    21    44    1
    49    21    45    1
    50    22    46    1
    51    22    47    1
    52    25    48    1
    53    26    49    1
    54    26    50    1
    55    26    51    1
    56    29    52    1
    57    29    53    1
@<TRIPOS>SUBSTRUCTURE
     1 UNL1        1 TEMP              0 ****  ****    0 ROOT


##########                                Name:                  34
##########                DOCK_Rotatable_Bonds:                   4
##########                         Heavy_Atoms:                  30
##########                    Molecular_Weight:             413.427
##########                       Formal_Charge:         0.000399768
##########                     HBond_Acceptors:                   8
##########                        HBond_Donors:                   0
##########                    Descriptor_Score:           33.488983
##########          Footprint_Similarity_Score:            8.553306
##########                 desc_FPS_vdw_energy:          -25.298244
##########                  desc_FPS_es_energy:           -2.565493
##########              desc_FPS_vdw+es_energy:          -27.863737
##########                  desc_FPS_num_hbond:                   0
##########                    desc_FPS_vdw_fps:            7.256283
##########                     desc_FPS_es_fps:            1.297023
##########                     desc_FPS_hb_fps:            0.000000
##########              desc_FPS_vdw_fp_numres:                 219
##########               desc_FPS_es_fp_numres:                 219
##########               desc_FPS_hb_fp_numres:                 219
##########                 Pharmacophore_Score:           20.000000
##########              desc_FMS_num_match_tot:                   0
##########              desc_FMS_max_match_ref:                  10
##########              desc_FMS_max_match_mol:                  13
##########                 desc_FMS_match_rate:            4.000000
##########                desc_FMS_match_resid:            0.000000
##########    desc_FMS_num_hydrophobic_matched:                   0
##########          desc_FMS_num_donor_matched:                   0
##########       desc_FMS_num_acceptor_matched:                   0
##########       desc_FMS_num_aromatic_matched:                   0
##########       desc_FMS_num_positive_matched:                   0
##########       desc_FMS_num_negative_matched:                   0
##########           desc_FMS_num_ring_matched:                   0
########## Hungarian_Matching_Similarity_Score:            5.043545
##########       desc_HMS_num_unmtchd_hvy_atms:                  21
##########           desc_HMS_num_ref_hvy_atms:                  23
##########        desc_HMS_rmsd_mtchd_hvy_atms:            5.478328
##########               Property_Volume_Score:            0.107869
##########               desc_VOS_geometric_vo:            0.180727
##########                desc_VOS_hvy_atom_vo:            0.160765
##########            desc_VOS_pos_chrg_atm_vo:            0.079744
##########            desc_VOS_neg_chrg_atm_vo:            0.072571
##########         desc_VOS_hydrophobic_atm_vo:            0.143249
##########         desc_VOS_hydrophilic_atm_vo:            0.010160
##########           Internal_energy_repulsive:           19.436403

@<TRIPOS>MOLECULE
34
 53 57 1 0 0
SMALL
GASTEIGER


@<TRIPOS>ATOM
      1 O           5.8832   16.9371   45.8857 O.2     1  UNL1       -0.2448
      2 C           6.5134   16.2912   45.0806 C.2     1  UNL1        0.3439
      3 O           6.4468   14.9477   45.0298 O.3     1  UNL1       -0.4510
      4 C           7.4584   16.7161   44.0417 C.ar    1  UNL1        0.1108
      5 C           7.2357   14.3923   43.9431 C.3     1  UNL1        0.1489
      6 C           7.9592   18.0333   43.6399 C.ar    1  UNL1        0.1758
      7 C           7.9481   15.5816   43.3341 C.ar    1  UNL1        0.0123
      8 C           6.2878   13.6486   42.9646 C.3     1  UNL1        0.0808
      9 O           7.6638   19.2795   44.1857 O.3     1  UNL1       -0.4906
     10 C           8.8868   18.0587   42.5602 C.ar    1  UNL1        0.1623
     11 C           8.8622   15.6386   42.3016 C.ar    1  UNL1       -0.0505
     12 N           4.9337   14.3065   42.9480 N.3     1  UNL1       -0.2946
     13 C           6.2964   12.1492   43.2991 C.ar    1  UNL1        0.0223
     14 C           6.4689   19.6568   44.8977 C.3     1  UNL1        0.0790
     15 O           9.4735   19.2030   42.0158 O.3     1  UNL1       -0.4914
     16 C           9.3169   16.8891   41.9221 C.ar    1  UNL1       -0.0159
     17 C           3.7677   13.4242   43.1963 C.3     1  UNL1        0.0033
     18 C           4.7002   15.1472   41.7509 C.3     1  UNL1       -0.0120
     19 C           7.3882   11.3281   42.9674 C.ar    1  UNL1        0.1704
     20 C           5.2229   11.5953   44.0068 C.ar    1  UNL1       -0.0342
     21 C           9.2674   20.5818   42.4024 C.3     1  UNL1        0.0790
     22 C           4.0446   12.4757   44.3681 C.3     1  UNL1       -0.0143
     23 O           8.6139   11.7887   42.5005 O.3     1  UNL1       -0.4910
     24 C           7.3472    9.9011   43.2043 C.ar    1  UNL1        0.2079
     25 C           5.2178   10.2496   44.3718 C.ar    1  UNL1       -0.0124
     26 C           9.8128   11.8862   43.2999 C.3     1  UNL1        0.0790
     27 O           8.4585    9.1494   43.4770 O.3     1  UNL1       -0.4489
     28 C           6.2399    9.3541   43.9083 C.ar    1  UNL1        0.1702
     29 C           8.0016    7.9661   44.1836 C.3     1  UNL1        0.2334
     30 O           6.6535    8.2727   44.6333 O.3     1  UNL1       -0.4525
     31 H           7.9620   13.6930   44.3682 H       1  UNL1        0.0805
     32 H           6.6933   13.7583   41.9597 H       1  UNL1        0.0554
     33 H           9.1988   14.7408   41.7912 H       1  UNL1        0.0623
     34 H           6.5913   20.6786   45.2649 H       1  UNL1        0.0660
     35 H           6.3196   18.9871   45.7485 H       1  UNL1        0.0660
     36 H           5.6135   19.6251   44.2183 H       1  UNL1        0.0660
     37 H          10.0286   16.9659   41.1035 H       1  UNL1        0.0655
     38 H           3.5598   12.8274   42.3023 H       1  UNL1        0.0430
     39 H           2.8877   14.0336   43.4194 H       1  UNL1        0.0430
     40 H           5.5004   15.8799   41.6295 H       1  UNL1        0.0391
     41 H           3.7526   15.6846   41.8511 H       1  UNL1        0.0391
     42 H           4.6567   14.5199   40.8559 H       1  UNL1        0.0391
     43 H           9.8757   21.2234   41.7602 H       1  UNL1        0.0660
     44 H           9.5720   20.7184   43.4436 H       1  UNL1        0.0660
     45 H           8.2124   20.8416   42.2799 H       1  UNL1        0.0660
     46 H           3.1561   11.8696   44.5603 H       1  UNL1        0.0326
     47 H           4.2595   13.0460   45.2750 H       1  UNL1        0.0326
     48 H           4.3966    9.8310   44.9467 H       1  UNL1        0.0658
     49 H          10.4222   12.7075   42.9136 H       1  UNL1        0.0660
     50 H          10.3838   10.9598   43.2114 H       1  UNL1        0.0660
     51 H           9.5530   12.0786   44.3440 H       1  UNL1        0.0660
     52 H           8.6632    7.7257   45.0299 H       1  UNL1        0.1166
     53 H           7.9548    7.1240   43.4747 H       1  UNL1        0.1166
@<TRIPOS>BOND
     1     1     2    2
     2     2     3    1
     3     2     4    1
     4     3     5    1
     5     4     6   ar
     6     4     7   ar
     7     5     8    1
     8     6     9    1
     9     6    10   ar
    10     7    11   ar
    11     8    12    1
    12     8    13    1
    13     9    14    1
    14    10    15    1
    15    10    16   ar
    16    12    17    1
    17    12    18    1
    18    13    19   ar
    19    13    20   ar
    20    15    21    1
    21    17    22    1
    22    19    23    1
    23    19    24   ar
    24    20    25   ar
    25    23    26    1
    26    24    27    1
    27    24    28   ar
    28    27    29    1
    29    28    30    1
    30     5     7    1
    31    11    16   ar
    32    20    22    1
    33    25    28   ar
    34    29    30    1
    35     5    31    1
    36     8    32    1
    37    11    33    1
    38    14    34    1
    39    14    35    1
    40    14    36    1
    41    16    37    1
    42    17    38    1
    43    17    39    1
    44    18    40    1
    45    18    41    1
    46    18    42    1
    47    21    43    1
    48    21    44    1
    49    21    45    1
    50    22    46    1
    51    22    47    1
    52    25    48    1
    53    26    49    1
    54    26    50    1
    55    26    51    1
    56    29    52    1
    57    29    53    1
@<TRIPOS>SUBSTRUCTURE
     1 UNL1        1 TEMP              0 ****  ****    0 ROOT


##########                                Name:                  35
##########                DOCK_Rotatable_Bonds:                   1
##########                         Heavy_Atoms:                  12
##########                    Molecular_Weight:             162.145
##########                       Formal_Charge:         0.000100017
##########                     HBond_Acceptors:                   3
##########                        HBond_Donors:                   1
##########                    Descriptor_Score:           40.710846
##########          Footprint_Similarity_Score:           12.121326
##########                 desc_FPS_vdw_energy:          -25.144033
##########                  desc_FPS_es_energy:           -0.065791
##########              desc_FPS_vdw+es_energy:          -25.209826
##########                  desc_FPS_num_hbond:                   2
##########                    desc_FPS_vdw_fps:            9.718517
##########                     desc_FPS_es_fps:            2.402809
##########                     desc_FPS_hb_fps:            1.414214
##########              desc_FPS_vdw_fp_numres:                 219
##########               desc_FPS_es_fp_numres:                 219
##########               desc_FPS_hb_fp_numres:                 219
##########                 Pharmacophore_Score:           20.000000
##########              desc_FMS_num_match_tot:                   0
##########              desc_FMS_max_match_ref:                  10
##########              desc_FMS_max_match_mol:                   6
##########                 desc_FMS_match_rate:            4.000000
##########                desc_FMS_match_resid:            0.000000
##########    desc_FMS_num_hydrophobic_matched:                   0
##########          desc_FMS_num_donor_matched:                   0
##########       desc_FMS_num_acceptor_matched:                   0
##########       desc_FMS_num_aromatic_matched:                   0
##########       desc_FMS_num_positive_matched:                   0
##########       desc_FMS_num_negative_matched:                   0
##########           desc_FMS_num_ring_matched:                   0
########## Hungarian_Matching_Similarity_Score:            8.589520
##########       desc_HMS_num_unmtchd_hvy_atms:                  13
##########           desc_HMS_num_ref_hvy_atms:                  23
##########        desc_HMS_rmsd_mtchd_hvy_atms:           10.763433
##########               Property_Volume_Score:            0.000000
##########               desc_VOS_geometric_vo:            0.000000
##########                desc_VOS_hvy_atom_vo:            0.000000
##########            desc_VOS_pos_chrg_atm_vo:            0.000000
##########            desc_VOS_neg_chrg_atm_vo:            0.000000
##########         desc_VOS_hydrophobic_atm_vo:            0.000000
##########         desc_VOS_hydrophilic_atm_vo:            0.000000
##########           Internal_energy_repulsive:            0.313152

@<TRIPOS>MOLECULE
35
 18 19 1 0 0
SMALL
GASTEIGER


@<TRIPOS>ATOM
      1 O          21.0205    7.7639   43.0707 O.2     1  UNL1       -0.2452
      2 C          21.6187    8.2382   42.1276 C.ar    1  UNL1        0.3372
      3 O          21.6332    7.6199   40.9202 O.2     1  UNL1       -0.4220
      4 C          22.3723    9.5010   42.1893 C.ar    1  UNL1        0.0236
      5 C          22.2896    8.0927   39.8015 C.ar    1  UNL1        0.1425
      6 C          23.0685   10.0350   41.0527 C.ar    1  UNL1       -0.0443
      7 C          23.0241    9.3275   39.8591 C.ar    1  UNL1        0.0178
      8 C          22.2291    7.3433   38.5775 C.ar    1  UNL1        0.0229
      9 C          23.6727    9.7789   38.7103 C.ar    1  UNL1       -0.0476
     10 C          22.8959    7.8380   37.4562 C.ar    1  UNL1        0.1204
     11 C          23.6066    9.0399   37.5264 C.ar    1  UNL1       -0.0194
     12 O          22.8606    7.1519   36.2777 O.3     1  UNL1       -0.5066
     13 H          22.3644   10.0001   43.1528 H       1  UNL1        0.0689
     14 H          23.6168   10.9710   41.1251 H       1  UNL1        0.0627
     15 H          21.6740    6.4097   38.5295 H       1  UNL1        0.0691
     16 H          24.2341   10.7099   38.7290 H       1  UNL1        0.0626
     17 H          24.1197    9.4092   36.6413 H       1  UNL1        0.0654
     18 H          22.3300    6.3403   36.3773 H       1  UNL1        0.2921
@<TRIPOS>BOND
     1     1     2    2
     2     2     3   ar
     3     2     4   ar
     4     3     5   ar
     5     4     6   ar
     6     5     7   ar
     7     5     8   ar
     8     7     9   ar
     9     8    10   ar
    10     9    11   ar
    11    10    12    1
    12     6     7   ar
    13    10    11   ar
    14     4    13    1
    15     6    14    1
    16     8    15    1
    17     9    16    1
    18    11    17    1
    19    12    18    1
@<TRIPOS>SUBSTRUCTURE
     1 UNL1        1 TEMP              0 ****  ****    0 ROOT


##########                                Name:                  35
##########                DOCK_Rotatable_Bonds:                   1
##########                         Heavy_Atoms:                  12
##########                    Molecular_Weight:             162.145
##########                       Formal_Charge:         0.000100017
##########                     HBond_Acceptors:                   3
##########                        HBond_Donors:                   1
##########                    Descriptor_Score:           40.787815
##########          Footprint_Similarity_Score:           12.203965
##########                 desc_FPS_vdw_energy:          -24.909679
##########                  desc_FPS_es_energy:           -0.205915
##########              desc_FPS_vdw+es_energy:          -25.115595
##########                  desc_FPS_num_hbond:                   1
##########                    desc_FPS_vdw_fps:            9.747413
##########                     desc_FPS_es_fps:            2.456552
##########                     desc_FPS_hb_fps:            1.000000
##########              desc_FPS_vdw_fp_numres:                 219
##########               desc_FPS_es_fp_numres:                 219
##########               desc_FPS_hb_fp_numres:                 219
##########                 Pharmacophore_Score:           20.000000
##########              desc_FMS_num_match_tot:                   0
##########              desc_FMS_max_match_ref:                  10
##########              desc_FMS_max_match_mol:                   6
##########                 desc_FMS_match_rate:            4.000000
##########                desc_FMS_match_resid:            0.000000
##########    desc_FMS_num_hydrophobic_matched:                   0
##########          desc_FMS_num_donor_matched:                   0
##########       desc_FMS_num_acceptor_matched:                   0
##########       desc_FMS_num_aromatic_matched:                   0
##########       desc_FMS_num_positive_matched:                   0
##########       desc_FMS_num_negative_matched:                   0
##########           desc_FMS_num_ring_matched:                   0
########## Hungarian_Matching_Similarity_Score:            8.583852
##########       desc_HMS_num_unmtchd_hvy_atms:                  13
##########           desc_HMS_num_ref_hvy_atms:                  23
##########        desc_HMS_rmsd_mtchd_hvy_atms:           10.757764
##########               Property_Volume_Score:            0.000000
##########               desc_VOS_geometric_vo:            0.000000
##########                desc_VOS_hvy_atom_vo:            0.000000
##########            desc_VOS_pos_chrg_atm_vo:            0.000000
##########            desc_VOS_neg_chrg_atm_vo:            0.000000
##########         desc_VOS_hydrophobic_atm_vo:            0.000000
##########         desc_VOS_hydrophilic_atm_vo:            0.000000
##########           Internal_energy_repulsive:            0.313103

@<TRIPOS>MOLECULE
35
 18 19 1 0 0
SMALL
GASTEIGER


@<TRIPOS>ATOM
      1 O          21.0441    7.6868   43.0684 O.2     1  UNL1       -0.2452
      2 C          21.6076    8.1850   42.1163 C.ar    1  UNL1        0.3372
      3 O          21.6688    7.5463   40.9211 O.2     1  UNL1       -0.4220
      4 C          22.2675    9.5001   42.1537 C.ar    1  UNL1        0.0236
      5 C          22.2907    8.0439   39.7935 C.ar    1  UNL1        0.1425
      6 C          22.9248   10.0613   41.0070 C.ar    1  UNL1       -0.0443
      7 C          22.9336    9.3297   39.8273 C.ar    1  UNL1        0.0178
      8 C          22.2865    7.2687   38.5842 C.ar    1  UNL1        0.0229
      9 C          23.5493    9.8048   38.6701 C.ar    1  UNL1       -0.0476
     10 C          22.9173    7.7889   37.4536 C.ar    1  UNL1        0.1204
     11 C          23.5388    9.0403   37.5006 C.ar    1  UNL1       -0.0194
     12 O          22.9336    7.0794   36.2885 O.3     1  UNL1       -0.5066
     13 H          22.2220   10.0158   43.1074 H       1  UNL1        0.0689
     14 H          23.4036   11.0359   41.0615 H       1  UNL1        0.0627
     15 H          21.8007    6.2965   38.5542 H       1  UNL1        0.0691
     16 H          24.0417   10.7743   38.6708 H       1  UNL1        0.0626
     17 H          24.0250    9.4288   36.6086 H       1  UNL1        0.0654
     18 H          22.5081    6.2120   36.4175 H       1  UNL1        0.2921
@<TRIPOS>BOND
     1     1     2    2
     2     2     3   ar
     3     2     4   ar
     4     3     5   ar
     5     4     6   ar
     6     5     7   ar
     7     5     8   ar
     8     7     9   ar
     9     8    10   ar
    10     9    11   ar
    11    10    12    1
    12     6     7   ar
    13    10    11   ar
    14     4    13    1
    15     6    14    1
    16     8    15    1
    17     9    16    1
    18    11    17    1
    19    12    18    1
@<TRIPOS>SUBSTRUCTURE
     1 UNL1        1 TEMP              0 ****  ****    0 ROOT


##########                                Name:                  35
##########                DOCK_Rotatable_Bonds:                   1
##########                         Heavy_Atoms:                  12
##########                    Molecular_Weight:             162.145
##########                       Formal_Charge:         0.000100017
##########                     HBond_Acceptors:                   3
##########                        HBond_Donors:                   1
##########                    Descriptor_Score:           40.792446
##########          Footprint_Similarity_Score:           12.186234
##########                 desc_FPS_vdw_energy:          -24.631584
##########                  desc_FPS_es_energy:           -0.007205
##########              desc_FPS_vdw+es_energy:          -24.638790
##########                  desc_FPS_num_hbond:                   2
##########                    desc_FPS_vdw_fps:            9.681822
##########                     desc_FPS_es_fps:            2.504413
##########                     desc_FPS_hb_fps:            1.414214
##########              desc_FPS_vdw_fp_numres:                 219
##########               desc_FPS_es_fp_numres:                 219
##########               desc_FPS_hb_fp_numres:                 219
##########                 Pharmacophore_Score:           20.000000
##########              desc_FMS_num_match_tot:                   0
##########              desc_FMS_max_match_ref:                  10
##########              desc_FMS_max_match_mol:                   6
##########                 desc_FMS_match_rate:            4.000000
##########                desc_FMS_match_resid:            0.000000
##########    desc_FMS_num_hydrophobic_matched:                   0
##########          desc_FMS_num_donor_matched:                   0
##########       desc_FMS_num_acceptor_matched:                   0
##########       desc_FMS_num_aromatic_matched:                   0
##########       desc_FMS_num_positive_matched:                   0
##########       desc_FMS_num_negative_matched:                   0
##########           desc_FMS_num_ring_matched:                   0
########## Hungarian_Matching_Similarity_Score:            8.606213
##########       desc_HMS_num_unmtchd_hvy_atms:                  13
##########           desc_HMS_num_ref_hvy_atms:                  23
##########        desc_HMS_rmsd_mtchd_hvy_atms:           10.780126
##########               Property_Volume_Score:            0.000000
##########               desc_VOS_geometric_vo:            0.000000
##########                desc_VOS_hvy_atom_vo:            0.000000
##########            desc_VOS_pos_chrg_atm_vo:            0.000000
##########            desc_VOS_neg_chrg_atm_vo:            0.000000
##########         desc_VOS_hydrophobic_atm_vo:            0.000000
##########         desc_VOS_hydrophilic_atm_vo:            0.000000
##########           Internal_energy_repulsive:            0.313063

@<TRIPOS>MOLECULE
35
 18 19 1 0 0
SMALL
GASTEIGER


@<TRIPOS>ATOM
      1 O          21.0446    7.5818   43.0597 O.2     1  UNL1       -0.2452
      2 C          21.6169    8.0832   42.1145 C.ar    1  UNL1        0.3372
      3 O          21.6173    7.4883   40.8954 O.2     1  UNL1       -0.4220
      4 C          22.3525    9.3561   42.1861 C.ar    1  UNL1        0.0236
      5 C          22.2444    7.9925   39.7736 C.ar    1  UNL1        0.1425
      6 C          23.0182    9.9224   41.0469 C.ar    1  UNL1       -0.0443
      7 C          22.9612    9.2372   39.8410 C.ar    1  UNL1        0.0178
      8 C          22.1713    7.2656   38.5367 C.ar    1  UNL1        0.0229
      9 C          23.5803    9.7203   38.6888 C.ar    1  UNL1       -0.0476
     10 C          22.8086    7.7919   37.4126 C.ar    1  UNL1        0.1204
     11 C          23.5023    9.0030   37.4923 C.ar    1  UNL1       -0.0194
     12 O          22.7606    7.1278   36.2219 O.3     1  UNL1       -0.5066
     13 H          22.3559    9.8366   43.1591 H       1  UNL1        0.0689
     14 H          23.5536   10.8652   41.1269 H       1  UNL1        0.0627
     15 H          21.6296    6.3246   38.4814 H       1  UNL1        0.0691
     16 H          24.1279   10.6594   38.7146 H       1  UNL1        0.0626
     17 H          23.9923    9.3970   36.6048 H       1  UNL1        0.0654
     18 H          22.2655    6.2942   36.3220 H       1  UNL1        0.2921
@<TRIPOS>BOND
     1     1     2    2
     2     2     3   ar
     3     2     4   ar
     4     3     5   ar
     5     4     6   ar
     6     5     7   ar
     7     5     8   ar
     8     7     9   ar
     9     8    10   ar
    10     9    11   ar
    11    10    12    1
    12     6     7   ar
    13    10    11   ar
    14     4    13    1
    15     6    14    1
    16     8    15    1
    17     9    16    1
    18    11    17    1
    19    12    18    1
@<TRIPOS>SUBSTRUCTURE
     1 UNL1        1 TEMP              0 ****  ****    0 ROOT


##########                                Name:                  36
##########                DOCK_Rotatable_Bonds:                  10
##########                         Heavy_Atoms:                  31
##########                    Molecular_Weight:             432.384
##########                       Formal_Charge:        -2.38419e-07
##########                     HBond_Acceptors:                  10
##########                        HBond_Donors:                   7
##########                    Descriptor_Score:           41.107784
##########          Footprint_Similarity_Score:           13.168715
##########                 desc_FPS_vdw_energy:          -33.472485
##########                  desc_FPS_es_energy:           -5.536563
##########              desc_FPS_vdw+es_energy:          -39.009048
##########                  desc_FPS_num_hbond:                   4
##########                    desc_FPS_vdw_fps:            9.401567
##########                     desc_FPS_es_fps:            3.767148
##########                     desc_FPS_hb_fps:            2.449490
##########              desc_FPS_vdw_fp_numres:                 219
##########               desc_FPS_es_fp_numres:                 219
##########               desc_FPS_hb_fp_numres:                 219
##########                 Pharmacophore_Score:           20.000000
##########              desc_FMS_num_match_tot:                   0
##########              desc_FMS_max_match_ref:                  10
##########              desc_FMS_max_match_mol:                  21
##########                 desc_FMS_match_rate:            4.000000
##########                desc_FMS_match_resid:            0.000000
##########    desc_FMS_num_hydrophobic_matched:                   0
##########          desc_FMS_num_donor_matched:                   0
##########       desc_FMS_num_acceptor_matched:                   0
##########       desc_FMS_num_aromatic_matched:                   0
##########       desc_FMS_num_positive_matched:                   0
##########       desc_FMS_num_negative_matched:                   0
##########           desc_FMS_num_ring_matched:                   0
########## Hungarian_Matching_Similarity_Score:            8.004570
##########       desc_HMS_num_unmtchd_hvy_atms:                  18
##########           desc_HMS_num_ref_hvy_atms:                  23
##########        desc_HMS_rmsd_mtchd_hvy_atms:            9.091526
##########               Property_Volume_Score:            0.065504
##########               desc_VOS_geometric_vo:            0.111507
##########                desc_VOS_hvy_atom_vo:            0.116880
##########            desc_VOS_pos_chrg_atm_vo:            0.037536
##########            desc_VOS_neg_chrg_atm_vo:            0.072796
##########         desc_VOS_hydrophobic_atm_vo:            0.000132
##########         desc_VOS_hydrophilic_atm_vo:            0.054172
##########           Internal_energy_repulsive:           20.503038

@<TRIPOS>MOLECULE
36
 51 54 1 0 0
SMALL
GASTEIGER


@<TRIPOS>ATOM
      1 O           1.2110   14.9909   41.8613 O.2     1  UNL1       -0.2869
      2 C           2.0781   14.4581   42.5303 C.ar    1  UNL1        0.1966
      3 C           3.3191   13.8863   41.9920 C.ar    1  UNL1        0.1058
      4 C           1.9673   14.2626   43.9916 C.ar    1  UNL1        0.0288
      5 C           4.1662   13.3171   42.9220 C.ar    1  UNL1        0.1520
      6 C           3.6404   13.7483   40.5920 C.ar    1  UNL1        0.1347
      7 C           2.7392   13.7419   44.6300 C.ar    1  UNL1        0.1392
      8 O           3.6986   13.2856   44.2391 O.2     1  UNL1       -0.4540
      9 C           5.3864   12.6496   42.4845 C.ar    1  UNL1        0.0682
     10 O           2.8635   14.3539   39.6497 O.3     1  UNL1       -0.5058
     11 C           4.6790   12.9221   40.1854 C.ar    1  UNL1        0.0226
     12 C           2.4761   13.5433   46.1109 C.ar    1  UNL1        0.0176
     13 C           5.5439   12.3648   41.1189 C.ar    1  UNL1        0.1296
     14 C           6.5470   12.7755   43.5024 C.3     1  UNL1        0.1193
     15 C           1.2746   13.9924   46.6966 C.ar    1  UNL1       -0.0476
     16 C           3.4269   12.9231   46.9534 C.ar    1  UNL1       -0.0476
     17 O           6.5691   11.6185   40.6398 O.3     1  UNL1       -0.5062
     18 O           6.9506   14.1773   43.4940 O.3     1  UNL1       -0.3609
     19 C           7.8460   11.8834   43.4416 C.3     1  UNL1        0.1139
     20 C           1.0431   13.8365   48.0647 C.ar    1  UNL1       -0.0195
     21 C           3.1840   12.7714   48.3160 C.ar    1  UNL1       -0.0195
     22 C           7.7867   14.5695   42.3716 C.3     1  UNL1        0.1108
     23 O           7.5729   10.5096   43.1457 O.3     1  UNL1       -0.3862
     24 C           8.9788   12.3854   42.4938 C.3     1  UNL1        0.1121
     25 C           1.9964   13.2254   48.8770 C.ar    1  UNL1        0.1169
     26 C           9.1697   13.9125   42.5745 C.3     1  UNL1        0.1117
     27 C           7.8103   16.1062   42.2443 C.3     1  UNL1        0.0729
     28 O          10.2147   11.7658   42.8716 O.3     1  UNL1       -0.3865
     29 O           1.7905   13.0605   50.2168 O.3     1  UNL1       -0.5068
     30 O           9.7327   14.2451   43.8516 O.3     1  UNL1       -0.3865
     31 O           8.4929   16.5133   41.0633 O.3     1  UNL1       -0.3924
     32 H           1.0040   14.5814   44.3732 H       1  UNL1        0.0693
     33 H           3.2861   14.2101   38.7751 H       1  UNL1        0.2922
     34 H           4.8563   12.7613   39.1231 H       1  UNL1        0.0691
     35 H           6.1161   12.5897   44.4906 H       1  UNL1        0.0676
     36 H           0.5177   14.4848   46.0909 H       1  UNL1        0.0626
     37 H           4.3666   12.5422   46.5623 H       1  UNL1        0.0626
     38 H           6.5373   11.6812   39.6632 H       1  UNL1        0.2922
     39 H           8.2664   11.9075   44.4508 H       1  UNL1        0.0649
     40 H           0.1130   14.2007   48.4939 H       1  UNL1        0.0654
     41 H           3.9303   12.2922   48.9460 H       1  UNL1        0.0654
     42 H           7.3547   14.1829   41.4448 H       1  UNL1        0.0646
     43 H           6.8697   10.2213   43.7713 H       1  UNL1        0.2100
     44 H           8.7583   12.1170   41.4585 H       1  UNL1        0.0647
     45 H           9.8552   14.2377   41.7860 H       1  UNL1        0.0647
     46 H           8.3416   16.5165   43.1078 H       1  UNL1        0.0584
     47 H           6.7908   16.5005   42.2428 H       1  UNL1        0.0584
     48 H          10.3057   11.8953   43.8424 H       1  UNL1        0.2100
     49 H           0.9144   13.3873   50.4885 H       1  UNL1        0.2921
     50 H           9.0264   14.1509   44.5168 H       1  UNL1        0.2100
     51 H           8.0041   16.1210   40.3214 H       1  UNL1        0.2095
@<TRIPOS>BOND
     1     1     2    2
     2     2     3   ar
     3     2     4   ar
     4     3     5   ar
     5     3     6   ar
     6     4     7   ar
     7     5     8   ar
     8     5     9   ar
     9     6    10    1
    10     6    11   ar
    11     7    12    1
    12     9    13   ar
    13     9    14    1
    14    12    15   ar
    15    12    16   ar
    16    13    17    1
    17    14    18    1
    18    14    19    1
    19    15    20   ar
    20    16    21   ar
    21    18    22    1
    22    19    23    1
    23    19    24    1
    24    20    25   ar
    25    22    26    1
    26    22    27    1
    27    24    28    1
    28    25    29    1
    29    26    30    1
    30    27    31    1
    31     7     8   ar
    32    11    13   ar
    33    21    25   ar
    34    24    26    1
    35     4    32    1
    36    10    33    1
    37    11    34    1
    38    14    35    1
    39    15    36    1
    40    16    37    1
    41    17    38    1
    42    19    39    1
    43    20    40    1
    44    21    41    1
    45    22    42    1
    46    23    43    1
    47    24    44    1
    48    26    45    1
    49    27    46    1
    50    27    47    1
    51    28    48    1
    52    29    49    1
    53    30    50    1
    54    31    51    1
@<TRIPOS>SUBSTRUCTURE
     1 UNL1        1 TEMP              0 ****  ****    0 ROOT


##########                                Name:                  36
##########                DOCK_Rotatable_Bonds:                  10
##########                         Heavy_Atoms:                  31
##########                    Molecular_Weight:             432.384
##########                       Formal_Charge:        -2.38419e-07
##########                     HBond_Acceptors:                  10
##########                        HBond_Donors:                   7
##########                    Descriptor_Score:           40.979683
##########          Footprint_Similarity_Score:           13.050739
##########                 desc_FPS_vdw_energy:          -33.230881
##########                  desc_FPS_es_energy:           -5.398006
##########              desc_FPS_vdw+es_energy:          -38.628887
##########                  desc_FPS_num_hbond:                   5
##########                    desc_FPS_vdw_fps:            9.291450
##########                     desc_FPS_es_fps:            3.759289
##########                     desc_FPS_hb_fps:            3.000000
##########              desc_FPS_vdw_fp_numres:                 219
##########               desc_FPS_es_fp_numres:                 219
##########               desc_FPS_hb_fp_numres:                 219
##########                 Pharmacophore_Score:           20.000000
##########              desc_FMS_num_match_tot:                   0
##########              desc_FMS_max_match_ref:                  10
##########              desc_FMS_max_match_mol:                  21
##########                 desc_FMS_match_rate:            4.000000
##########                desc_FMS_match_resid:            0.000000
##########    desc_FMS_num_hydrophobic_matched:                   0
##########          desc_FMS_num_donor_matched:                   0
##########       desc_FMS_num_acceptor_matched:                   0
##########       desc_FMS_num_aromatic_matched:                   0
##########       desc_FMS_num_positive_matched:                   0
##########       desc_FMS_num_negative_matched:                   0
##########           desc_FMS_num_ring_matched:                   0
########## Hungarian_Matching_Similarity_Score:            7.991442
##########       desc_HMS_num_unmtchd_hvy_atms:                  18
##########           desc_HMS_num_ref_hvy_atms:                  23
##########        desc_HMS_rmsd_mtchd_hvy_atms:            9.078399
##########               Property_Volume_Score:            0.062499
##########               desc_VOS_geometric_vo:            0.105703
##########                desc_VOS_hvy_atom_vo:            0.108449
##########            desc_VOS_pos_chrg_atm_vo:            0.034019
##########            desc_VOS_neg_chrg_atm_vo:            0.069314
##########         desc_VOS_hydrophobic_atm_vo:            0.000096
##########         desc_VOS_hydrophilic_atm_vo:            0.057413
##########           Internal_energy_repulsive:           20.373571

@<TRIPOS>MOLECULE
36
 51 54 1 0 0
SMALL
GASTEIGER


@<TRIPOS>ATOM
      1 O           1.2209   14.9874   41.8223 O.2     1  UNL1       -0.2869
      2 C           2.0881   14.4568   42.4928 C.ar    1  UNL1        0.1966
      3 C           3.3194   13.8648   41.9539 C.ar    1  UNL1        0.1058
      4 C           1.9869   14.2849   43.9578 C.ar    1  UNL1        0.0288
      5 C           4.1684   13.3019   42.8861 C.ar    1  UNL1        0.1520
      6 C           3.6285   13.7021   40.5538 C.ar    1  UNL1        0.1347
      7 C           2.7588   13.7668   44.5982 C.ar    1  UNL1        0.1392
      8 O           3.7107   13.2953   44.2072 O.2     1  UNL1       -0.4540
      9 C           5.3788   12.6162   42.4498 C.ar    1  UNL1        0.0682
     10 O           2.8501   14.3005   39.6083 O.3     1  UNL1       -0.5058
     11 C           4.6560   12.8598   40.1522 C.ar    1  UNL1        0.0226
     12 C           2.5054   13.5936   46.0840 C.ar    1  UNL1        0.0176
     13 C           5.5229   12.3088   41.0876 C.ar    1  UNL1        0.1296
     14 C           6.5484   12.7466   43.4567 C.3     1  UNL1        0.1193
     15 C           1.3387   14.1128   46.6820 C.ar    1  UNL1       -0.0476
     16 C           3.4318   12.9277   46.9187 C.ar    1  UNL1       -0.0476
     17 O           6.5372   11.5453   40.6123 O.3     1  UNL1       -0.5062
     18 O           6.9836   14.1380   43.4027 O.3     1  UNL1       -0.3609
     19 C           7.8264   11.8236   43.4160 C.3     1  UNL1        0.1139
     20 C           1.1176   13.9797   48.0542 C.ar    1  UNL1       -0.0195
     21 C           3.1996   12.7994   48.2855 C.ar    1  UNL1       -0.0195
     22 C           7.8212   14.4763   42.2641 C.3     1  UNL1        0.1108
     23 O           7.5203   10.4480   43.1643 O.3     1  UNL1       -0.3862
     24 C           8.9642   12.2702   42.4468 C.3     1  UNL1        0.1121
     25 C           2.0467   13.3225   48.8587 C.ar    1  UNL1        0.1169
     26 C           9.1903   13.7944   42.4792 C.3     1  UNL1        0.1117
     27 C           7.8789   16.0074   42.0894 C.3     1  UNL1        0.0729
     28 O          10.1881   11.6344   42.8365 O.3     1  UNL1       -0.3865
     29 O           1.8503   13.1788   50.2023 O.3     1  UNL1       -0.5068
     30 O           9.7688   14.1530   43.7422 O.3     1  UNL1       -0.3865
     31 O           8.6241   16.3643   40.9301 O.3     1  UNL1       -0.3924
     32 H           1.0297   14.6188   44.3417 H       1  UNL1        0.0693
     33 H           3.2182   14.0707   38.7274 H       1  UNL1        0.2922
     34 H           4.8236   12.6810   39.0912 H       1  UNL1        0.0691
     35 H           6.1197   12.6012   44.4526 H       1  UNL1        0.0676
     36 H           0.6020   14.6421   46.0825 H       1  UNL1        0.0626
     37 H           4.3436   12.4925   46.5182 H       1  UNL1        0.0626
     38 H           6.4642   11.5472   39.6359 H       1  UNL1        0.2922
     39 H           8.2536   11.8691   44.4216 H       1  UNL1        0.0649
     40 H           0.2150   14.3980   48.4928 H       1  UNL1        0.0654
     41 H           3.9267   12.2841   48.9093 H       1  UNL1        0.0654
     42 H           7.3746   14.0714   41.3521 H       1  UNL1        0.0646
     43 H           6.7592   10.2181   43.7447 H       1  UNL1        0.2100
     44 H           8.7311   11.9754   41.4216 H       1  UNL1        0.0647
     45 H           9.8779   14.0794   41.6773 H       1  UNL1        0.0647
     46 H           8.3761   16.4366   42.9638 H       1  UNL1        0.0584
     47 H           6.8679   16.4184   42.0264 H       1  UNL1        0.0584
     48 H          10.4622   12.0533   43.6832 H       1  UNL1        0.2100
     49 H           0.9892   13.5389   50.4801 H       1  UNL1        0.2921
     50 H           9.1107   13.9538   44.4332 H       1  UNL1        0.2100
     51 H           8.1954   15.9121   40.1850 H       1  UNL1        0.2095
@<TRIPOS>BOND
     1     1     2    2
     2     2     3   ar
     3     2     4   ar
     4     3     5   ar
     5     3     6   ar
     6     4     7   ar
     7     5     8   ar
     8     5     9   ar
     9     6    10    1
    10     6    11   ar
    11     7    12    1
    12     9    13   ar
    13     9    14    1
    14    12    15   ar
    15    12    16   ar
    16    13    17    1
    17    14    18    1
    18    14    19    1
    19    15    20   ar
    20    16    21   ar
    21    18    22    1
    22    19    23    1
    23    19    24    1
    24    20    25   ar
    25    22    26    1
    26    22    27    1
    27    24    28    1
    28    25    29    1
    29    26    30    1
    30    27    31    1
    31     7     8   ar
    32    11    13   ar
    33    21    25   ar
    34    24    26    1
    35     4    32    1
    36    10    33    1
    37    11    34    1
    38    14    35    1
    39    15    36    1
    40    16    37    1
    41    17    38    1
    42    19    39    1
    43    20    40    1
    44    21    41    1
    45    22    42    1
    46    23    43    1
    47    24    44    1
    48    26    45    1
    49    27    46    1
    50    27    47    1
    51    28    48    1
    52    29    49    1
    53    30    50    1
    54    31    51    1
@<TRIPOS>SUBSTRUCTURE
     1 UNL1        1 TEMP              0 ****  ****    0 ROOT


##########                                Name:                  36
##########                DOCK_Rotatable_Bonds:                  10
##########                         Heavy_Atoms:                  31
##########                    Molecular_Weight:             432.384
##########                       Formal_Charge:        -2.38419e-07
##########                     HBond_Acceptors:                  10
##########                        HBond_Donors:                   7
##########                    Descriptor_Score:           40.646564
##########          Footprint_Similarity_Score:           12.763894
##########                 desc_FPS_vdw_energy:          -33.393990
##########                  desc_FPS_es_energy:           -4.595490
##########              desc_FPS_vdw+es_energy:          -37.989479
##########                  desc_FPS_num_hbond:                   4
##########                    desc_FPS_vdw_fps:            9.394069
##########                     desc_FPS_es_fps:            3.369825
##########                     desc_FPS_hb_fps:            2.449490
##########              desc_FPS_vdw_fp_numres:                 219
##########               desc_FPS_es_fp_numres:                 219
##########               desc_FPS_hb_fp_numres:                 219
##########                 Pharmacophore_Score:           20.000000
##########              desc_FMS_num_match_tot:                   0
##########              desc_FMS_max_match_ref:                  10
##########              desc_FMS_max_match_mol:                  21
##########                 desc_FMS_match_rate:            4.000000
##########                desc_FMS_match_resid:            0.000000
##########    desc_FMS_num_hydrophobic_matched:                   0
##########          desc_FMS_num_donor_matched:                   0
##########       desc_FMS_num_acceptor_matched:                   0
##########       desc_FMS_num_aromatic_matched:                   0
##########       desc_FMS_num_positive_matched:                   0
##########       desc_FMS_num_negative_matched:                   0
##########           desc_FMS_num_ring_matched:                   0
########## Hungarian_Matching_Similarity_Score:            7.948505
##########       desc_HMS_num_unmtchd_hvy_atms:                  18
##########           desc_HMS_num_ref_hvy_atms:                  23
##########        desc_HMS_rmsd_mtchd_hvy_atms:            9.035461
##########               Property_Volume_Score:            0.065833
##########               desc_VOS_geometric_vo:            0.122677
##########                desc_VOS_hvy_atom_vo:            0.111240
##########            desc_VOS_pos_chrg_atm_vo:            0.033737
##########            desc_VOS_neg_chrg_atm_vo:            0.069399
##########         desc_VOS_hydrophobic_atm_vo:            0.000173
##########         desc_VOS_hydrophilic_atm_vo:            0.057771
##########           Internal_energy_repulsive:           18.805264

@<TRIPOS>MOLECULE
36
 51 54 1 0 0
SMALL
GASTEIGER


@<TRIPOS>ATOM
      1 O           1.2563   14.9825   41.8470 O.2     1  UNL1       -0.2869
      2 C           2.1282   14.4595   42.5175 C.ar    1  UNL1        0.1966
      3 C           3.3673   13.8835   41.9792 C.ar    1  UNL1        0.1058
      4 C           2.0260   14.2816   43.9817 C.ar    1  UNL1        0.0288
      5 C           4.2207   13.3273   42.9112 C.ar    1  UNL1        0.1520
      6 C           3.6810   13.7291   40.5792 C.ar    1  UNL1        0.1347
      7 C           2.8025   13.7702   44.6220 C.ar    1  UNL1        0.1392
      8 O           3.7606   13.3111   44.2313 O.2     1  UNL1       -0.4540
      9 C           5.4398   12.6570   42.4750 C.ar    1  UNL1        0.0682
     10 O           2.8976   14.3217   39.6340 O.3     1  UNL1       -0.5058
     11 C           4.7189   12.9000   40.1768 C.ar    1  UNL1        0.0226
     12 C           2.5482   13.5892   46.1067 C.ar    1  UNL1        0.0176
     13 C           5.5901   12.3558   41.1121 C.ar    1  UNL1        0.1296
     14 C           6.6058   12.7974   43.4847 C.3     1  UNL1        0.1193
     15 C           3.5132   12.9796   46.9347 C.ar    1  UNL1       -0.0476
     16 C           1.3364   14.0044   46.7045 C.ar    1  UNL1       -0.0476
     17 O           6.6141   11.6057   40.6364 O.3     1  UNL1       -0.5062
     18 O           7.0528   14.1839   43.4058 O.3     1  UNL1       -0.3609
     19 C           7.8763   11.8634   43.4681 C.3     1  UNL1        0.1139
     20 C           3.2690   12.7859   48.2957 C.ar    1  UNL1       -0.0195
     21 C           1.1049   13.8078   48.0633 C.ar    1  UNL1       -0.0195
     22 C           7.8984   14.4931   42.2648 C.3     1  UNL1        0.1108
     23 O           7.5600   10.4857   43.2416 O.3     1  UNL1       -0.3862
     24 C           9.0223   12.2817   42.4957 C.3     1  UNL1        0.1121
     25 C           2.0652   13.1999   48.8631 C.ar    1  UNL1        0.1169
     26 C           9.2607   13.8043   42.4996 C.3     1  UNL1        0.1117
     27 C           7.9695   16.0200   42.0606 C.3     1  UNL1        0.0729
     28 O          10.2390   11.6437   42.9035 O.3     1  UNL1       -0.3865
     29 O           1.8057   13.0226   50.1920 O.3     1  UNL1       -0.5068
     30 O           9.8363   14.1827   43.7582 O.3     1  UNL1       -0.3865
     31 O           6.8168   16.5010   41.3777 O.3     1  UNL1       -0.3924
     32 H           1.0642   14.6032   44.3648 H       1  UNL1        0.0693
     33 H           3.2325   14.0481   38.7524 H       1  UNL1        0.2922
     34 H           4.8906   12.7267   39.1155 H       1  UNL1        0.0691
     35 H           6.1714   12.6750   44.4812 H       1  UNL1        0.0676
     36 H           4.4563   12.6342   46.5182 H       1  UNL1        0.0626
     37 H           0.5577   14.4933   46.1251 H       1  UNL1        0.0626
     38 H           6.5139   11.5683   39.6631 H       1  UNL1        0.2922
     39 H           8.2993   11.9249   44.4746 H       1  UNL1        0.0649
     40 H           4.0249   12.3040   48.9107 H       1  UNL1        0.0654
     41 H           0.1646   14.1341   48.5023 H       1  UNL1        0.0654
     42 H           7.4526   14.0742   41.3587 H       1  UNL1        0.0646
     43 H           8.2933    9.9601   43.6354 H       1  UNL1        0.2100
     44 H           8.7913   11.9689   41.4753 H       1  UNL1        0.0647
     45 H           9.9543   14.0681   41.6955 H       1  UNL1        0.0647
     46 H           8.8497   16.2468   41.4524 H       1  UNL1        0.0584
     47 H           8.0722   16.5253   43.0245 H       1  UNL1        0.0584
     48 H          10.4331   11.9685   43.8114 H       1  UNL1        0.2100
     49 H           0.9128   13.3312   50.4279 H       1  UNL1        0.2921
     50 H           9.2826   13.7971   44.4616 H       1  UNL1        0.2100
     51 H           6.8093   16.0546   40.5152 H       1  UNL1        0.2095
@<TRIPOS>BOND
     1     1     2    2
     2     2     3   ar
     3     2     4   ar
     4     3     5   ar
     5     3     6   ar
     6     4     7   ar
     7     5     8   ar
     8     5     9   ar
     9     6    10    1
    10     6    11   ar
    11     7    12    1
    12     9    13   ar
    13     9    14    1
    14    12    15   ar
    15    12    16   ar
    16    13    17    1
    17    14    18    1
    18    14    19    1
    19    15    20   ar
    20    16    21   ar
    21    18    22    1
    22    19    23    1
    23    19    24    1
    24    20    25   ar
    25    22    26    1
    26    22    27    1
    27    24    28    1
    28    25    29    1
    29    26    30    1
    30    27    31    1
    31     7     8   ar
    32    11    13   ar
    33    21    25   ar
    34    24    26    1
    35     4    32    1
    36    10    33    1
    37    11    34    1
    38    14    35    1
    39    15    36    1
    40    16    37    1
    41    17    38    1
    42    19    39    1
    43    20    40    1
    44    21    41    1
    45    22    42    1
    46    23    43    1
    47    24    44    1
    48    26    45    1
    49    27    46    1
    50    27    47    1
    51    28    48    1
    52    29    49    1
    53    30    50    1
    54    31    51    1
@<TRIPOS>SUBSTRUCTURE
     1 UNL1        1 TEMP              0 ****  ****    0 ROOT


##########                                Name:                  37
##########                DOCK_Rotatable_Bonds:                   3
##########                         Heavy_Atoms:                   9
##########                    Molecular_Weight:             126.112
##########                       Formal_Charge:         0.000100046
##########                     HBond_Acceptors:                   3
##########                        HBond_Donors:                   3
##########                    Descriptor_Score:           39.139385
##########          Footprint_Similarity_Score:           11.291827
##########                 desc_FPS_vdw_energy:          -19.115683
##########                  desc_FPS_es_energy:           -2.921787
##########              desc_FPS_vdw+es_energy:          -22.037470
##########                  desc_FPS_num_hbond:                   3
##########                    desc_FPS_vdw_fps:            8.637394
##########                     desc_FPS_es_fps:            2.654433
##########                     desc_FPS_hb_fps:            2.236068
##########              desc_FPS_vdw_fp_numres:                 219
##########               desc_FPS_es_fp_numres:                 219
##########               desc_FPS_hb_fp_numres:                 219
##########                 Pharmacophore_Score:           20.000000
##########              desc_FMS_num_match_tot:                   0
##########              desc_FMS_max_match_ref:                  10
##########              desc_FMS_max_match_mol:                   7
##########                 desc_FMS_match_rate:            4.000000
##########                desc_FMS_match_resid:            0.000000
##########    desc_FMS_num_hydrophobic_matched:                   0
##########          desc_FMS_num_donor_matched:                   0
##########       desc_FMS_num_acceptor_matched:                   0
##########       desc_FMS_num_aromatic_matched:                   0
##########       desc_FMS_num_positive_matched:                   0
##########       desc_FMS_num_negative_matched:                   0
##########           desc_FMS_num_ring_matched:                   0
########## Hungarian_Matching_Similarity_Score:            7.847558
##########       desc_HMS_num_unmtchd_hvy_atms:                  18
##########           desc_HMS_num_ref_hvy_atms:                  23
##########        desc_HMS_rmsd_mtchd_hvy_atms:            8.934515
##########               Property_Volume_Score:            0.000000
##########               desc_VOS_geometric_vo:            0.000000
##########                desc_VOS_hvy_atom_vo:            0.000000
##########            desc_VOS_pos_chrg_atm_vo:            0.000000
##########            desc_VOS_neg_chrg_atm_vo:            0.000000
##########         desc_VOS_hydrophobic_atm_vo:            0.000000
##########         desc_VOS_hydrophilic_atm_vo:            0.000000
##########           Internal_energy_repulsive:            0.103603

@<TRIPOS>MOLECULE
37
 15 15 1 0 0
SMALL
GASTEIGER


@<TRIPOS>ATOM
      1 O          21.7662    7.4823   42.1041 O.3     1  UNL1       -0.5009
      2 C          22.2926    8.3290   41.1662 C.ar    1  UNL1        0.2006
      3 C          22.6984    9.6207   41.5161 C.ar    1  UNL1        0.1620
      4 C          22.3937    7.9053   39.8396 C.ar    1  UNL1        0.1620
      5 O          22.6682   10.0303   42.8181 O.3     1  UNL1       -0.5032
      6 C          23.1742   10.4889   40.5337 C.ar    1  UNL1       -0.0163
      7 O          22.0006    6.6438   39.5097 O.3     1  UNL1       -0.5032
      8 C          22.8793    8.7710   38.8614 C.ar    1  UNL1       -0.0163
      9 C          23.2638   10.0652   39.2083 C.ar    1  UNL1       -0.0546
     10 H          21.6113    6.6096   41.6968 H       1  UNL1        0.2924
     11 H          23.0472   10.9266   42.8807 H       1  UNL1        0.2923
     12 H          23.4891   11.4946   40.8026 H       1  UNL1        0.0655
     13 H          21.7132    6.2136   40.3408 H       1  UNL1        0.2923
     14 H          22.9535    8.4398   37.8281 H       1  UNL1        0.0655
     15 H          23.6404   10.7425   38.4459 H       1  UNL1        0.0620
@<TRIPOS>BOND
     1     1     2    1
     2     2     3   ar
     3     2     4   ar
     4     3     5    1
     5     3     6   ar
     6     4     7    1
     7     4     8   ar
     8     6     9   ar
     9     8     9   ar
    10     1    10    1
    11     5    11    1
    12     6    12    1
    13     7    13    1
    14     8    14    1
    15     9    15    1
@<TRIPOS>SUBSTRUCTURE
     1 UNL1        1 TEMP              0 ****  ****    0 ROOT


##########                                Name:                  37
##########                DOCK_Rotatable_Bonds:                   3
##########                         Heavy_Atoms:                   9
##########                    Molecular_Weight:             126.112
##########                       Formal_Charge:         0.000100046
##########                     HBond_Acceptors:                   3
##########                        HBond_Donors:                   3
##########                    Descriptor_Score:           38.910667
##########          Footprint_Similarity_Score:           11.340263
##########                 desc_FPS_vdw_energy:          -18.417259
##########                  desc_FPS_es_energy:           -3.000344
##########              desc_FPS_vdw+es_energy:          -21.417603
##########                  desc_FPS_num_hbond:                   2
##########                    desc_FPS_vdw_fps:            8.506201
##########                     desc_FPS_es_fps:            2.834062
##########                     desc_FPS_hb_fps:            2.000000
##########              desc_FPS_vdw_fp_numres:                 219
##########               desc_FPS_es_fp_numres:                 219
##########               desc_FPS_hb_fp_numres:                 219
##########                 Pharmacophore_Score:           20.000000
##########              desc_FMS_num_match_tot:                   0
##########              desc_FMS_max_match_ref:                  10
##########              desc_FMS_max_match_mol:                   7
##########                 desc_FMS_match_rate:            4.000000
##########                desc_FMS_match_resid:            0.000000
##########    desc_FMS_num_hydrophobic_matched:                   0
##########          desc_FMS_num_donor_matched:                   0
##########       desc_FMS_num_acceptor_matched:                   0
##########       desc_FMS_num_aromatic_matched:                   0
##########       desc_FMS_num_positive_matched:                   0
##########       desc_FMS_num_negative_matched:                   0
##########           desc_FMS_num_ring_matched:                   0
########## Hungarian_Matching_Similarity_Score:            7.570402
##########       desc_HMS_num_unmtchd_hvy_atms:                  18
##########           desc_HMS_num_ref_hvy_atms:                  23
##########        desc_HMS_rmsd_mtchd_hvy_atms:            8.657359
##########               Property_Volume_Score:            0.000000
##########               desc_VOS_geometric_vo:            0.000000
##########                desc_VOS_hvy_atom_vo:            0.000000
##########            desc_VOS_pos_chrg_atm_vo:            0.000000
##########            desc_VOS_neg_chrg_atm_vo:            0.000000
##########         desc_VOS_hydrophobic_atm_vo:            0.000000
##########         desc_VOS_hydrophilic_atm_vo:            0.000000
##########           Internal_energy_repulsive:            0.103595

@<TRIPOS>MOLECULE
37
 15 15 1 0 0
SMALL
GASTEIGER


@<TRIPOS>ATOM
      1 O          22.0160    6.7617   39.8051 O.3     1  UNL1       -0.5009
      2 C          22.3041    8.0344   40.2185 C.ar    1  UNL1        0.2006
      3 C          22.8120    8.9800   39.3221 C.ar    1  UNL1        0.1620
      4 C          22.1175    8.3788   41.5587 C.ar    1  UNL1        0.1620
      5 O          22.9399    8.6824   37.9958 O.3     1  UNL1       -0.5032
      6 C          23.1573   10.2524   39.7770 C.ar    1  UNL1       -0.0163
      7 O          21.6175    7.4525   42.4228 O.3     1  UNL1       -0.5032
      8 C          22.4534    9.6543   42.0089 C.ar    1  UNL1       -0.0163
      9 C          22.9792   10.5889   41.1184 C.ar    1  UNL1       -0.0546
     10 H          21.7376    6.2304   40.5742 H       1  UNL1        0.2924
     11 H          23.3382    9.4433   37.5339 H       1  UNL1        0.2923
     12 H          23.5542   10.9894   39.0825 H       1  UNL1        0.0655
     13 H          21.4641    6.6378   41.9022 H       1  UNL1        0.2923
     14 H          22.3107    9.9188   43.0542 H       1  UNL1        0.0655
     15 H          23.2441   11.5834   41.4687 H       1  UNL1        0.0620
@<TRIPOS>BOND
     1     1     2    1
     2     2     3   ar
     3     2     4   ar
     4     3     5    1
     5     3     6   ar
     6     4     7    1
     7     4     8   ar
     8     6     9   ar
     9     8     9   ar
    10     1    10    1
    11     5    11    1
    12     6    12    1
    13     7    13    1
    14     8    14    1
    15     9    15    1
@<TRIPOS>SUBSTRUCTURE
     1 UNL1        1 TEMP              0 ****  ****    0 ROOT


##########                                Name:                  37
##########                DOCK_Rotatable_Bonds:                   3
##########                         Heavy_Atoms:                   9
##########                    Molecular_Weight:             126.112
##########                       Formal_Charge:         0.000100046
##########                     HBond_Acceptors:                   3
##########                        HBond_Donors:                   3
##########                    Descriptor_Score:           39.357933
##########          Footprint_Similarity_Score:           11.760990
##########                 desc_FPS_vdw_energy:          -17.719955
##########                  desc_FPS_es_energy:           -3.041536
##########              desc_FPS_vdw+es_energy:          -20.761492
##########                  desc_FPS_num_hbond:                   2
##########                    desc_FPS_vdw_fps:            8.534782
##########                     desc_FPS_es_fps:            3.226209
##########                     desc_FPS_hb_fps:            2.000000
##########              desc_FPS_vdw_fp_numres:                 219
##########               desc_FPS_es_fp_numres:                 219
##########               desc_FPS_hb_fp_numres:                 219
##########                 Pharmacophore_Score:           20.000000
##########              desc_FMS_num_match_tot:                   0
##########              desc_FMS_max_match_ref:                  10
##########              desc_FMS_max_match_mol:                   7
##########                 desc_FMS_match_rate:            4.000000
##########                desc_FMS_match_resid:            0.000000
##########    desc_FMS_num_hydrophobic_matched:                   0
##########          desc_FMS_num_donor_matched:                   0
##########       desc_FMS_num_acceptor_matched:                   0
##########       desc_FMS_num_aromatic_matched:                   0
##########       desc_FMS_num_positive_matched:                   0
##########       desc_FMS_num_negative_matched:                   0
##########           desc_FMS_num_ring_matched:                   0
########## Hungarian_Matching_Similarity_Score:            7.596944
##########       desc_HMS_num_unmtchd_hvy_atms:                  18
##########           desc_HMS_num_ref_hvy_atms:                  23
##########        desc_HMS_rmsd_mtchd_hvy_atms:            8.683900
##########               Property_Volume_Score:            0.000000
##########               desc_VOS_geometric_vo:            0.000000
##########                desc_VOS_hvy_atom_vo:            0.000000
##########            desc_VOS_pos_chrg_atm_vo:            0.000000
##########            desc_VOS_neg_chrg_atm_vo:            0.000000
##########         desc_VOS_hydrophobic_atm_vo:            0.000000
##########         desc_VOS_hydrophilic_atm_vo:            0.000000
##########           Internal_energy_repulsive:            0.103605

@<TRIPOS>MOLECULE
37
 15 15 1 0 0
SMALL
GASTEIGER


@<TRIPOS>ATOM
      1 O          22.0120    6.5852   39.8180 O.3     1  UNL1       -0.5009
      2 C          22.2844    7.8841   40.1534 C.ar    1  UNL1        0.2006
      3 C          22.8729    8.7531   39.2293 C.ar    1  UNL1        0.1620
      4 C          21.9994    8.3331   41.4444 C.ar    1  UNL1        0.1620
      5 O          23.0989    8.3523   37.9439 O.3     1  UNL1       -0.5032
      6 C          23.1991   10.0545   39.6105 C.ar    1  UNL1       -0.0163
      7 O          21.4216    7.4807   42.3356 O.3     1  UNL1       -0.5032
      8 C          22.3166    9.6372   41.8199 C.ar    1  UNL1       -0.0163
      9 C          22.9223   10.4957   40.9039 C.ar    1  UNL1       -0.0546
     10 H          21.6479    6.1231   40.5960 H       1  UNL1        0.2924
     11 H          22.8619    7.4105   37.8558 H       1  UNL1        0.2923
     12 H          23.6584   10.7322   38.8944 H       1  UNL1        0.0655
     13 H          21.3150    6.6236   41.8747 H       1  UNL1        0.2923
     14 H          22.0971    9.9833   42.8273 H       1  UNL1        0.0655
     15 H          23.1727   11.5124   41.1961 H       1  UNL1        0.0620
@<TRIPOS>BOND
     1     1     2    1
     2     2     3   ar
     3     2     4   ar
     4     3     5    1
     5     3     6   ar
     6     4     7    1
     7     4     8   ar
     8     6     9   ar
     9     8     9   ar
    10     1    10    1
    11     5    11    1
    12     6    12    1
    13     7    13    1
    14     8    14    1
    15     9    15    1
@<TRIPOS>SUBSTRUCTURE
     1 UNL1        1 TEMP              0 ****  ****    0 ROOT


##########                                Name:                  39
##########                DOCK_Rotatable_Bonds:                   3
##########                         Heavy_Atoms:                   9
##########                    Molecular_Weight:             126.112
##########                       Formal_Charge:         2.98023e-08
##########                     HBond_Acceptors:                   3
##########                        HBond_Donors:                   3
##########                    Descriptor_Score:           38.945679
##########          Footprint_Similarity_Score:           10.922230
##########                 desc_FPS_vdw_energy:          -18.008755
##########                  desc_FPS_es_energy:           -1.619088
##########              desc_FPS_vdw+es_energy:          -19.627842
##########                  desc_FPS_num_hbond:                   1
##########                    desc_FPS_vdw_fps:            8.777768
##########                     desc_FPS_es_fps:            2.144462
##########                     desc_FPS_hb_fps:            1.000000
##########              desc_FPS_vdw_fp_numres:                 219
##########               desc_FPS_es_fp_numres:                 219
##########               desc_FPS_hb_fp_numres:                 219
##########                 Pharmacophore_Score:           20.000000
##########              desc_FMS_num_match_tot:                   0
##########              desc_FMS_max_match_ref:                  10
##########              desc_FMS_max_match_mol:                   7
##########                 desc_FMS_match_rate:            4.000000
##########                desc_FMS_match_resid:            0.000000
##########    desc_FMS_num_hydrophobic_matched:                   0
##########          desc_FMS_num_donor_matched:                   0
##########       desc_FMS_num_acceptor_matched:                   0
##########       desc_FMS_num_aromatic_matched:                   0
##########       desc_FMS_num_positive_matched:                   0
##########       desc_FMS_num_negative_matched:                   0
##########           desc_FMS_num_ring_matched:                   0
########## Hungarian_Matching_Similarity_Score:            8.023450
##########       desc_HMS_num_unmtchd_hvy_atms:                  18
##########           desc_HMS_num_ref_hvy_atms:                  23
##########        desc_HMS_rmsd_mtchd_hvy_atms:            9.110406
##########               Property_Volume_Score:            0.000000
##########               desc_VOS_geometric_vo:            0.000000
##########                desc_VOS_hvy_atom_vo:            0.000000
##########            desc_VOS_pos_chrg_atm_vo:            0.000000
##########            desc_VOS_neg_chrg_atm_vo:            0.000000
##########         desc_VOS_hydrophobic_atm_vo:            0.000000
##########         desc_VOS_hydrophilic_atm_vo:            0.000000
##########           Internal_energy_repulsive:            0.110244

@<TRIPOS>MOLECULE
39
 15 15 1 0 0
SMALL
GASTEIGER


@<TRIPOS>ATOM
      1 O          21.8579    6.6811   38.5500 O.3     1  UNL1       -0.5065
      2 C          22.3236    7.7336   39.2872 C.ar    1  UNL1        0.1238
      3 C          23.1984    8.6709   38.7328 C.ar    1  UNL1        0.0215
      4 C          21.9150    7.8700   40.6131 C.ar    1  UNL1        0.0215
      5 C          23.6597    9.7392   39.5076 C.ar    1  UNL1        0.1238
      6 C          22.3787    8.9374   41.3824 C.ar    1  UNL1        0.1238
      7 O          24.5103   10.6645   38.9839 O.3     1  UNL1       -0.5065
      8 C          23.2502    9.8708   40.8311 C.ar    1  UNL1        0.0215
      9 O          21.9804    9.0724   42.6749 O.3     1  UNL1       -0.5065
     10 H          22.2151    6.6991   37.6441 H       1  UNL1        0.2921
     11 H          23.5204    8.5693   37.6992 H       1  UNL1        0.0691
     12 H          21.2332    7.1405   41.0444 H       1  UNL1        0.0691
     13 H          24.7231   11.3264   39.6575 H       1  UNL1        0.2921
     14 H          23.6096   10.7027   41.4332 H       1  UNL1        0.0691
     15 H          22.4024    9.8647   43.0393 H       1  UNL1        0.2921
@<TRIPOS>BOND
     1     1     2    1
     2     2     3   ar
     3     2     4   ar
     4     3     5   ar
     5     4     6   ar
     6     5     7    1
     7     5     8   ar
     8     6     9    1
     9     6     8   ar
    10     1    10    1
    11     3    11    1
    12     4    12    1
    13     7    13    1
    14     8    14    1
    15     9    15    1
@<TRIPOS>SUBSTRUCTURE
     1 UNL1        1 TEMP              0 ****  ****    0 ROOT


##########                                Name:                  39
##########                DOCK_Rotatable_Bonds:                   3
##########                         Heavy_Atoms:                   9
##########                    Molecular_Weight:             126.112
##########                       Formal_Charge:         2.98023e-08
##########                     HBond_Acceptors:                   3
##########                        HBond_Donors:                   3
##########                    Descriptor_Score:           38.955719
##########          Footprint_Similarity_Score:           10.940844
##########                 desc_FPS_vdw_energy:          -18.191208
##########                  desc_FPS_es_energy:           -1.535819
##########              desc_FPS_vdw+es_energy:          -19.727028
##########                  desc_FPS_num_hbond:                   1
##########                    desc_FPS_vdw_fps:            8.821847
##########                     desc_FPS_es_fps:            2.118996
##########                     desc_FPS_hb_fps:            1.000000
##########              desc_FPS_vdw_fp_numres:                 219
##########               desc_FPS_es_fp_numres:                 219
##########               desc_FPS_hb_fp_numres:                 219
##########                 Pharmacophore_Score:           20.000000
##########              desc_FMS_num_match_tot:                   0
##########              desc_FMS_max_match_ref:                  10
##########              desc_FMS_max_match_mol:                   7
##########                 desc_FMS_match_rate:            4.000000
##########                desc_FMS_match_resid:            0.000000
##########    desc_FMS_num_hydrophobic_matched:                   0
##########          desc_FMS_num_donor_matched:                   0
##########       desc_FMS_num_acceptor_matched:                   0
##########       desc_FMS_num_aromatic_matched:                   0
##########       desc_FMS_num_positive_matched:                   0
##########       desc_FMS_num_negative_matched:                   0
##########           desc_FMS_num_ring_matched:                   0
########## Hungarian_Matching_Similarity_Score:            8.014874
##########       desc_HMS_num_unmtchd_hvy_atms:                  18
##########           desc_HMS_num_ref_hvy_atms:                  23
##########        desc_HMS_rmsd_mtchd_hvy_atms:            9.101830
##########               Property_Volume_Score:            0.000000
##########               desc_VOS_geometric_vo:            0.000000
##########                desc_VOS_hvy_atom_vo:            0.000000
##########            desc_VOS_pos_chrg_atm_vo:            0.000000
##########            desc_VOS_neg_chrg_atm_vo:            0.000000
##########         desc_VOS_hydrophobic_atm_vo:            0.000000
##########         desc_VOS_hydrophilic_atm_vo:            0.000000
##########           Internal_energy_repulsive:            0.110235

@<TRIPOS>MOLECULE
39
 15 15 1 0 0
SMALL
GASTEIGER


@<TRIPOS>ATOM
      1 O          24.5604   10.6259   38.9399 O.3     1  UNL1       -0.5065
      2 C          23.6903    9.7356   39.5042 C.ar    1  UNL1        0.1238
      3 C          23.2529    9.8914   40.8216 C.ar    1  UNL1        0.0215
      4 C          23.2340    8.6567   38.7481 C.ar    1  UNL1        0.0215
      5 C          22.3619    8.9675   41.3754 C.ar    1  UNL1        0.1238
      6 C          22.3454    7.7370   39.3055 C.ar    1  UNL1        0.1238
      7 O          21.9220    9.1044   42.6567 O.3     1  UNL1       -0.5065
      8 C          21.9100    7.8914   40.6175 C.ar    1  UNL1        0.0215
      9 O          21.8988    6.6853   38.5693 O.3     1  UNL1       -0.5065
     10 H          24.7596   11.3592   39.5490 H       1  UNL1        0.2921
     11 H          23.6056   10.7309   41.4158 H       1  UNL1        0.0691
     12 H          23.5740    8.5360   37.7220 H       1  UNL1        0.0691
     13 H          22.3228    9.8909   43.0542 H       1  UNL1        0.2921
     14 H          21.2163    7.1731   41.0493 H       1  UNL1        0.0691
     15 H          22.3016    6.7403   37.6899 H       1  UNL1        0.2921
@<TRIPOS>BOND
     1     1     2    1
     2     2     3   ar
     3     2     4   ar
     4     3     5   ar
     5     4     6   ar
     6     5     7    1
     7     5     8   ar
     8     6     9    1
     9     6     8   ar
    10     1    10    1
    11     3    11    1
    12     4    12    1
    13     7    13    1
    14     8    14    1
    15     9    15    1
@<TRIPOS>SUBSTRUCTURE
     1 UNL1        1 TEMP              0 ****  ****    0 ROOT


##########                                Name:                  39
##########                DOCK_Rotatable_Bonds:                   3
##########                         Heavy_Atoms:                   9
##########                    Molecular_Weight:             126.112
##########                       Formal_Charge:         2.98023e-08
##########                     HBond_Acceptors:                   3
##########                        HBond_Donors:                   3
##########                    Descriptor_Score:           38.875351
##########          Footprint_Similarity_Score:           10.929909
##########                 desc_FPS_vdw_energy:          -18.324301
##########                  desc_FPS_es_energy:           -1.468748
##########              desc_FPS_vdw+es_energy:          -19.793049
##########                  desc_FPS_num_hbond:                   1
##########                    desc_FPS_vdw_fps:            8.817547
##########                     desc_FPS_es_fps:            2.112362
##########                     desc_FPS_hb_fps:            1.000000
##########              desc_FPS_vdw_fp_numres:                 219
##########               desc_FPS_es_fp_numres:                 219
##########               desc_FPS_hb_fp_numres:                 219
##########                 Pharmacophore_Score:           20.000000
##########              desc_FMS_num_match_tot:                   0
##########              desc_FMS_max_match_ref:                  10
##########              desc_FMS_max_match_mol:                   7
##########                 desc_FMS_match_rate:            4.000000
##########                desc_FMS_match_resid:            0.000000
##########    desc_FMS_num_hydrophobic_matched:                   0
##########          desc_FMS_num_donor_matched:                   0
##########       desc_FMS_num_acceptor_matched:                   0
##########       desc_FMS_num_aromatic_matched:                   0
##########       desc_FMS_num_positive_matched:                   0
##########       desc_FMS_num_negative_matched:                   0
##########           desc_FMS_num_ring_matched:                   0
########## Hungarian_Matching_Similarity_Score:            7.945441
##########       desc_HMS_num_unmtchd_hvy_atms:                  18
##########           desc_HMS_num_ref_hvy_atms:                  23
##########        desc_HMS_rmsd_mtchd_hvy_atms:            9.032397
##########               Property_Volume_Score:            0.000000
##########               desc_VOS_geometric_vo:            0.000000
##########                desc_VOS_hvy_atom_vo:            0.000000
##########            desc_VOS_pos_chrg_atm_vo:            0.000000
##########            desc_VOS_neg_chrg_atm_vo:            0.000000
##########         desc_VOS_hydrophobic_atm_vo:            0.000000
##########         desc_VOS_hydrophilic_atm_vo:            0.000000
##########           Internal_energy_repulsive:            0.110240

@<TRIPOS>MOLECULE
39
 15 15 1 0 0
SMALL
GASTEIGER


@<TRIPOS>ATOM
      1 O          24.4756   10.7408   39.0837 O.3     1  UNL1       -0.5065
      2 C          23.6245    9.7963   39.5855 C.ar    1  UNL1        0.1238
      3 C          23.2138    8.7105   38.8086 C.ar    1  UNL1        0.0215
      4 C          23.1626    9.9226   40.8948 C.ar    1  UNL1        0.0215
      5 C          22.3434    7.7574   39.3454 C.ar    1  UNL1        0.1238
      6 C          22.2936    8.9692   41.4258 C.ar    1  UNL1        0.1238
      7 O          21.9344    6.6906   38.6047 O.3     1  UNL1       -0.5065
      8 C          21.8839    7.8880   40.6525 C.ar    1  UNL1        0.0215
      9 O          21.8433    9.0903   42.7025 O.3     1  UNL1       -0.5065
     10 H          24.6447   11.4451   39.7347 H       1  UNL1        0.2921
     11 H          23.5708    8.6072   37.7868 H       1  UNL1        0.0691
     12 H          23.4832   10.7677   41.5000 H       1  UNL1        0.0691
     13 H          22.3063    6.7540   37.7131 H       1  UNL1        0.2921
     14 H          21.2067    7.1455   41.0695 H       1  UNL1        0.0691
     15 H          22.2229    9.8974   43.0808 H       1  UNL1        0.2921
@<TRIPOS>BOND
     1     1     2    1
     2     2     3   ar
     3     2     4   ar
     4     3     5   ar
     5     4     6   ar
     6     5     7    1
     7     5     8   ar
     8     6     9    1
     9     6     8   ar
    10     1    10    1
    11     3    11    1
    12     4    12    1
    13     7    13    1
    14     8    14    1
    15     9    15    1
@<TRIPOS>SUBSTRUCTURE
     1 UNL1        1 TEMP              0 ****  ****    0 ROOT


##########                                Name:                  40
##########                DOCK_Rotatable_Bonds:                   3
##########                         Heavy_Atoms:                  10
##########                    Molecular_Weight:             138.123
##########                       Formal_Charge:         9.99868e-05
##########                     HBond_Acceptors:                   3
##########                        HBond_Donors:                   2
##########                    Descriptor_Score:           39.554718
##########          Footprint_Similarity_Score:           11.535284
##########                 desc_FPS_vdw_energy:          -19.876623
##########                  desc_FPS_es_energy:           -1.819974
##########              desc_FPS_vdw+es_energy:          -21.696596
##########                  desc_FPS_num_hbond:                   1
##########                    desc_FPS_vdw_fps:            8.921589
##########                     desc_FPS_es_fps:            2.613696
##########                     desc_FPS_hb_fps:            1.000000
##########              desc_FPS_vdw_fp_numres:                 219
##########               desc_FPS_es_fp_numres:                 219
##########               desc_FPS_hb_fp_numres:                 219
##########                 Pharmacophore_Score:           20.000000
##########              desc_FMS_num_match_tot:                   0
##########              desc_FMS_max_match_ref:                  10
##########              desc_FMS_max_match_mol:                   6
##########                 desc_FMS_match_rate:            4.000000
##########                desc_FMS_match_resid:            0.000000
##########    desc_FMS_num_hydrophobic_matched:                   0
##########          desc_FMS_num_donor_matched:                   0
##########       desc_FMS_num_acceptor_matched:                   0
##########       desc_FMS_num_aromatic_matched:                   0
##########       desc_FMS_num_positive_matched:                   0
##########       desc_FMS_num_negative_matched:                   0
##########           desc_FMS_num_ring_matched:                   0
########## Hungarian_Matching_Similarity_Score:            8.019435
##########       desc_HMS_num_unmtchd_hvy_atms:                  15
##########           desc_HMS_num_ref_hvy_atms:                  23
##########        desc_HMS_rmsd_mtchd_hvy_atms:            9.758565
##########               Property_Volume_Score:            0.000000
##########               desc_VOS_geometric_vo:            0.000000
##########                desc_VOS_hvy_atom_vo:            0.000000
##########            desc_VOS_pos_chrg_atm_vo:            0.000000
##########            desc_VOS_neg_chrg_atm_vo:            0.000000
##########         desc_VOS_hydrophobic_atm_vo:            0.000000
##########         desc_VOS_hydrophilic_atm_vo:            0.000000
##########           Internal_energy_repulsive:            2.969187

@<TRIPOS>MOLECULE
40
 16 16 1 0 0
SMALL
GASTEIGER


@<TRIPOS>ATOM
      1 O          22.7944    9.8643   42.6308 O.2     1  UNL1       -0.2450
      2 C          22.7611   10.1901   41.4610 C.2     1  UNL1        0.3404
      3 O          22.8089   11.4538   41.1376 O.3     1  UNL1       -0.4770
      4 C          22.6502    9.2212   40.3001 C.ar    1  UNL1        0.1001
      5 C          22.1216    7.9275   40.4714 C.ar    1  UNL1        0.1308
      6 C          23.0779    9.5946   39.0152 C.ar    1  UNL1       -0.0442
      7 O          21.6807    7.4881   41.6836 O.3     1  UNL1       -0.5059
      8 C          22.0246    7.0505   39.3913 C.ar    1  UNL1       -0.0194
      9 C          22.9821    8.7125   37.9408 C.ar    1  UNL1       -0.0608
     10 C          22.4536    7.4401   38.1273 C.ar    1  UNL1       -0.0583
     11 H          22.8132   11.4839   40.1705 H       1  UNL1        0.2954
     12 H          23.5009   10.5778   38.8283 H       1  UNL1        0.0627
     13 H          21.3518    6.5700   41.5694 H       1  UNL1        0.2922
     14 H          21.6100    6.0553   39.5358 H       1  UNL1        0.0654
     15 H          23.3214    9.0190   36.9541 H       1  UNL1        0.0618
     16 H          22.3763    6.7517   37.2892 H       1  UNL1        0.0619
@<TRIPOS>BOND
     1     1     2    2
     2     2     3    1
     3     2     4    1
     4     4     5   ar
     5     4     6   ar
     6     5     7    1
     7     5     8   ar
     8     6     9   ar
     9     8    10   ar
    10     9    10   ar
    11     3    11    1
    12     6    12    1
    13     7    13    1
    14     8    14    1
    15     9    15    1
    16    10    16    1
@<TRIPOS>SUBSTRUCTURE
     1 UNL1        1 TEMP              0 ****  ****    0 ROOT


##########                                Name:                  40
##########                DOCK_Rotatable_Bonds:                   3
##########                         Heavy_Atoms:                  10
##########                    Molecular_Weight:             138.123
##########                       Formal_Charge:         9.99868e-05
##########                     HBond_Acceptors:                   3
##########                        HBond_Donors:                   2
##########                    Descriptor_Score:           39.180893
##########          Footprint_Similarity_Score:           11.281305
##########                 desc_FPS_vdw_energy:          -18.525019
##########                  desc_FPS_es_energy:           -1.866781
##########              desc_FPS_vdw+es_energy:          -20.391800
##########                  desc_FPS_num_hbond:                   1
##########                    desc_FPS_vdw_fps:            8.748805
##########                     desc_FPS_es_fps:            2.532500
##########                     desc_FPS_hb_fps:            1.000000
##########              desc_FPS_vdw_fp_numres:                 219
##########               desc_FPS_es_fp_numres:                 219
##########               desc_FPS_hb_fp_numres:                 219
##########                 Pharmacophore_Score:           20.000000
##########              desc_FMS_num_match_tot:                   0
##########              desc_FMS_max_match_ref:                  10
##########              desc_FMS_max_match_mol:                   6
##########                 desc_FMS_match_rate:            4.000000
##########                desc_FMS_match_resid:            0.000000
##########    desc_FMS_num_hydrophobic_matched:                   0
##########          desc_FMS_num_donor_matched:                   0
##########       desc_FMS_num_acceptor_matched:                   0
##########       desc_FMS_num_aromatic_matched:                   0
##########       desc_FMS_num_positive_matched:                   0
##########       desc_FMS_num_negative_matched:                   0
##########           desc_FMS_num_ring_matched:                   0
########## Hungarian_Matching_Similarity_Score:            7.899586
##########       desc_HMS_num_unmtchd_hvy_atms:                  15
##########           desc_HMS_num_ref_hvy_atms:                  23
##########        desc_HMS_rmsd_mtchd_hvy_atms:            9.638716
##########               Property_Volume_Score:            0.000000
##########               desc_VOS_geometric_vo:            0.000000
##########                desc_VOS_hvy_atom_vo:            0.000000
##########            desc_VOS_pos_chrg_atm_vo:            0.000000
##########            desc_VOS_neg_chrg_atm_vo:            0.000000
##########         desc_VOS_hydrophobic_atm_vo:            0.000000
##########         desc_VOS_hydrophilic_atm_vo:            0.000000
##########           Internal_energy_repulsive:            3.496442

@<TRIPOS>MOLECULE
40
 16 16 1 0 0
SMALL
GASTEIGER


@<TRIPOS>ATOM
      1 O          22.4752   11.4235   41.4458 O.2     1  UNL1       -0.2450
      2 C          22.7102   10.2358   41.5444 C.2     1  UNL1        0.3404
      3 O          23.1162    9.7471   42.6846 O.3     1  UNL1       -0.4770
      4 C          22.5821    9.2356   40.4121 C.ar    1  UNL1        0.1001
      5 C          22.1221    7.9244   40.6393 C.ar    1  UNL1        0.1308
      6 C          22.9242    9.5968   39.0984 C.ar    1  UNL1       -0.0442
      7 O          21.7660    7.4951   41.8826 O.3     1  UNL1       -0.5059
      8 C          22.0080    7.0186   39.5850 C.ar    1  UNL1       -0.0194
      9 C          22.8119    8.6860   38.0499 C.ar    1  UNL1       -0.0608
     10 C          22.3518    7.3963   38.2917 C.ar    1  UNL1       -0.0583
     11 H          23.2054   10.5014   43.2841 H       1  UNL1        0.2954
     12 H          23.2921   10.5928   38.8680 H       1  UNL1        0.0627
     13 H          21.4703    6.5620   41.8054 H       1  UNL1        0.2922
     14 H          21.6469    6.0098   39.7729 H       1  UNL1        0.0654
     15 H          23.0845    8.9834   37.0400 H       1  UNL1        0.0618
     16 H          22.2616    6.6855   37.4739 H       1  UNL1        0.0619
@<TRIPOS>BOND
     1     1     2    2
     2     2     3    1
     3     2     4    1
     4     4     5   ar
     5     4     6   ar
     6     5     7    1
     7     5     8   ar
     8     6     9   ar
     9     8    10   ar
    10     9    10   ar
    11     3    11    1
    12     6    12    1
    13     7    13    1
    14     8    14    1
    15     9    15    1
    16    10    16    1
@<TRIPOS>SUBSTRUCTURE
     1 UNL1        1 TEMP              0 ****  ****    0 ROOT


##########                                Name:                  40
##########                DOCK_Rotatable_Bonds:                   3
##########                         Heavy_Atoms:                  10
##########                    Molecular_Weight:             138.123
##########                       Formal_Charge:         9.99868e-05
##########                     HBond_Acceptors:                   3
##########                        HBond_Donors:                   2
##########                    Descriptor_Score:           39.406284
##########          Footprint_Similarity_Score:           11.375871
##########                 desc_FPS_vdw_energy:          -21.054792
##########                  desc_FPS_es_energy:           -1.422933
##########              desc_FPS_vdw+es_energy:          -22.477724
##########                  desc_FPS_num_hbond:                   1
##########                    desc_FPS_vdw_fps:            9.025522
##########                     desc_FPS_es_fps:            2.350349
##########                     desc_FPS_hb_fps:            1.000000
##########              desc_FPS_vdw_fp_numres:                 219
##########               desc_FPS_es_fp_numres:                 219
##########               desc_FPS_hb_fp_numres:                 219
##########                 Pharmacophore_Score:           20.000000
##########              desc_FMS_num_match_tot:                   0
##########              desc_FMS_max_match_ref:                  10
##########              desc_FMS_max_match_mol:                   6
##########                 desc_FMS_match_rate:            4.000000
##########                desc_FMS_match_resid:            0.000000
##########    desc_FMS_num_hydrophobic_matched:                   0
##########          desc_FMS_num_donor_matched:                   0
##########       desc_FMS_num_acceptor_matched:                   0
##########       desc_FMS_num_aromatic_matched:                   0
##########       desc_FMS_num_positive_matched:                   0
##########       desc_FMS_num_negative_matched:                   0
##########           desc_FMS_num_ring_matched:                   0
########## Hungarian_Matching_Similarity_Score:            8.030415
##########       desc_HMS_num_unmtchd_hvy_atms:                  15
##########           desc_HMS_num_ref_hvy_atms:                  23
##########        desc_HMS_rmsd_mtchd_hvy_atms:            9.769545
##########               Property_Volume_Score:            0.000000
##########               desc_VOS_geometric_vo:            0.000000
##########                desc_VOS_hvy_atom_vo:            0.000000
##########            desc_VOS_pos_chrg_atm_vo:            0.000000
##########            desc_VOS_neg_chrg_atm_vo:            0.000000
##########         desc_VOS_hydrophobic_atm_vo:            0.000000
##########         desc_VOS_hydrophilic_atm_vo:            0.000000
##########           Internal_energy_repulsive:            2.337883

@<TRIPOS>MOLECULE
40
 16 16 1 0 0
SMALL
GASTEIGER


@<TRIPOS>ATOM
      1 O          22.8118   10.1568   42.7192 O.2     1  UNL1       -0.2450
      2 C          22.8064   10.4427   41.5387 C.2     1  UNL1        0.3404
      3 O          22.7720   11.6957   41.1745 O.3     1  UNL1       -0.4770
      4 C          22.8223    9.4328   40.4079 C.ar    1  UNL1        0.1001
      5 C          22.2300    8.1632   40.5491 C.ar    1  UNL1        0.1308
      6 C          23.4355    9.7425   39.1826 C.ar    1  UNL1       -0.0442
      7 O          21.6114    7.7852   41.7029 O.3     1  UNL1       -0.5059
      8 C          22.2518    7.2479   39.4971 C.ar    1  UNL1       -0.0194
      9 C          23.4574    8.8222   38.1366 C.ar    1  UNL1       -0.0608
     10 C          22.8639    7.5744   38.2920 C.ar    1  UNL1       -0.0583
     11 H          22.7225   11.6937   40.2081 H       1  UNL1        0.2954
     12 H          23.9144   10.7045   39.0221 H       1  UNL1        0.0627
     13 H          21.2097    6.9018   41.5534 H       1  UNL1        0.2922
     14 H          21.7866    6.2719   39.6172 H       1  UNL1        0.0654
     15 H          23.9397    9.0793   37.1964 H       1  UNL1        0.0618
     16 H          22.8785    6.8563   37.4758 H       1  UNL1        0.0619
@<TRIPOS>BOND
     1     1     2    2
     2     2     3    1
     3     2     4    1
     4     4     5   ar
     5     4     6   ar
     6     5     7    1
     7     5     8   ar
     8     6     9   ar
     9     8    10   ar
    10     9    10   ar
    11     3    11    1
    12     6    12    1
    13     7    13    1
    14     8    14    1
    15     9    15    1
    16    10    16    1
@<TRIPOS>SUBSTRUCTURE
     1 UNL1        1 TEMP              0 ****  ****    0 ROOT


##########                                Name:                  41
##########                DOCK_Rotatable_Bonds:                   3
##########                         Heavy_Atoms:                  11
##########                    Molecular_Weight:              152.15
##########                       Formal_Charge:         -8.9407e-08
##########                     HBond_Acceptors:                   3
##########                        HBond_Donors:                   1
##########                    Descriptor_Score:           40.137001
##########          Footprint_Similarity_Score:           11.787106
##########                 desc_FPS_vdw_energy:          -21.543968
##########                  desc_FPS_es_energy:           -0.690867
##########              desc_FPS_vdw+es_energy:          -22.234837
##########                  desc_FPS_num_hbond:                   1
##########                    desc_FPS_vdw_fps:            9.539573
##########                     desc_FPS_es_fps:            2.247532
##########                     desc_FPS_hb_fps:            1.000000
##########              desc_FPS_vdw_fp_numres:                 219
##########               desc_FPS_es_fp_numres:                 219
##########               desc_FPS_hb_fp_numres:                 219
##########                 Pharmacophore_Score:           20.000000
##########              desc_FMS_num_match_tot:                   0
##########              desc_FMS_max_match_ref:                  10
##########              desc_FMS_max_match_mol:                   5
##########                 desc_FMS_match_rate:            4.000000
##########                desc_FMS_match_resid:            0.000000
##########    desc_FMS_num_hydrophobic_matched:                   0
##########          desc_FMS_num_donor_matched:                   0
##########       desc_FMS_num_acceptor_matched:                   0
##########       desc_FMS_num_aromatic_matched:                   0
##########       desc_FMS_num_positive_matched:                   0
##########       desc_FMS_num_negative_matched:                   0
##########           desc_FMS_num_ring_matched:                   0
########## Hungarian_Matching_Similarity_Score:            8.349895
##########       desc_HMS_num_unmtchd_hvy_atms:                  14
##########           desc_HMS_num_ref_hvy_atms:                  23
##########        desc_HMS_rmsd_mtchd_hvy_atms:           10.306418
##########               Property_Volume_Score:            0.000000
##########               desc_VOS_geometric_vo:            0.000000
##########                desc_VOS_hvy_atom_vo:            0.000000
##########            desc_VOS_pos_chrg_atm_vo:            0.000000
##########            desc_VOS_neg_chrg_atm_vo:            0.000000
##########         desc_VOS_hydrophobic_atm_vo:            0.000000
##########         desc_VOS_hydrophilic_atm_vo:            0.000000
##########           Internal_energy_repulsive:            6.467719

@<TRIPOS>MOLECULE
41
 19 19 1 0 0
SMALL
GASTEIGER


@<TRIPOS>ATOM
      1 O          23.0324    9.5294   41.5333 O.2     1  UNL1       -0.2448
      2 C          22.5350    8.7716   40.7213 C.2     1  UNL1        0.3425
      3 O          21.5941    7.8640   41.0770 O.3     1  UNL1       -0.4644
      4 C          22.8983    8.7999   39.2514 C.ar    1  UNL1        0.1002
      5 C          21.4685    7.4723   42.4694 C.3     1  UNL1        0.0820
      6 C          22.4630    7.8057   38.3505 C.ar    1  UNL1        0.1308
      7 C          23.6880    9.8475   38.7537 C.ar    1  UNL1       -0.0442
      8 O          21.7160    6.7300   38.7445 O.3     1  UNL1       -0.5059
      9 C          22.8026    7.8787   37.0005 C.ar    1  UNL1       -0.0194
     10 C          24.0217    9.9141   37.3987 C.ar    1  UNL1       -0.0608
     11 C          23.5766    8.9299   36.5227 C.ar    1  UNL1       -0.0583
     12 H          20.4677    7.0655   42.6332 H       1  UNL1        0.0661
     13 H          21.6121    8.3376   43.1233 H       1  UNL1        0.0661
     14 H          22.2169    6.7089   42.6994 H       1  UNL1        0.0661
     15 H          24.0435   10.6327   39.4128 H       1  UNL1        0.0627
     16 H          21.9754    6.4734   39.6538 H       1  UNL1        0.2922
     17 H          22.4634    7.1057   36.3137 H       1  UNL1        0.0654
     18 H          24.6271   10.7363   37.0301 H       1  UNL1        0.0618
     19 H          23.8364    8.9794   35.4681 H       1  UNL1        0.0619
@<TRIPOS>BOND
     1     1     2    2
     2     2     3    1
     3     2     4    1
     4     3     5    1
     5     4     6   ar
     6     4     7   ar
     7     6     8    1
     8     6     9   ar
     9     7    10   ar
    10     9    11   ar
    11    10    11   ar
    12     5    12    1
    13     5    13    1
    14     5    14    1
    15     7    15    1
    16     8    16    1
    17     9    17    1
    18    10    18    1
    19    11    19    1
@<TRIPOS>SUBSTRUCTURE
     1 UNL1        1 TEMP              0 ****  ****    0 ROOT


##########                                Name:                  41
##########                DOCK_Rotatable_Bonds:                   3
##########                         Heavy_Atoms:                  11
##########                    Molecular_Weight:              152.15
##########                       Formal_Charge:         -8.9407e-08
##########                     HBond_Acceptors:                   3
##########                        HBond_Donors:                   1
##########                    Descriptor_Score:           39.175446
##########          Footprint_Similarity_Score:           11.481616
##########                 desc_FPS_vdw_energy:          -20.102392
##########                  desc_FPS_es_energy:           -1.132159
##########              desc_FPS_vdw+es_energy:          -21.234550
##########                  desc_FPS_num_hbond:                   1
##########                    desc_FPS_vdw_fps:            8.925161
##########                     desc_FPS_es_fps:            2.556455
##########                     desc_FPS_hb_fps:            1.000000
##########              desc_FPS_vdw_fp_numres:                 219
##########               desc_FPS_es_fp_numres:                 219
##########               desc_FPS_hb_fp_numres:                 219
##########                 Pharmacophore_Score:           20.000000
##########              desc_FMS_num_match_tot:                   0
##########              desc_FMS_max_match_ref:                  10
##########              desc_FMS_max_match_mol:                   5
##########                 desc_FMS_match_rate:            4.000000
##########                desc_FMS_match_resid:            0.000000
##########    desc_FMS_num_hydrophobic_matched:                   0
##########          desc_FMS_num_donor_matched:                   0
##########       desc_FMS_num_acceptor_matched:                   0
##########       desc_FMS_num_aromatic_matched:                   0
##########       desc_FMS_num_positive_matched:                   0
##########       desc_FMS_num_negative_matched:                   0
##########           desc_FMS_num_ring_matched:                   0
########## Hungarian_Matching_Similarity_Score:            7.693827
##########       desc_HMS_num_unmtchd_hvy_atms:                  14
##########           desc_HMS_num_ref_hvy_atms:                  23
##########        desc_HMS_rmsd_mtchd_hvy_atms:            9.650348
##########               Property_Volume_Score:            0.000000
##########               desc_VOS_geometric_vo:            0.000000
##########                desc_VOS_hvy_atom_vo:            0.000000
##########            desc_VOS_pos_chrg_atm_vo:            0.000000
##########            desc_VOS_neg_chrg_atm_vo:            0.000000
##########         desc_VOS_hydrophobic_atm_vo:            0.000000
##########         desc_VOS_hydrophilic_atm_vo:            0.000000
##########           Internal_energy_repulsive:            4.606480

@<TRIPOS>MOLECULE
41
 19 19 1 0 0
SMALL
GASTEIGER


@<TRIPOS>ATOM
      1 O          22.4253    9.9758   42.6558 O.2     1  UNL1       -0.2448
      2 C          22.6567   10.2456   41.4918 C.2     1  UNL1        0.3425
      3 O          23.0353   11.4892   41.1105 O.3     1  UNL1       -0.4644
      4 C          22.5730    9.2156   40.3848 C.ar    1  UNL1        0.1002
      5 C          23.1187   12.5469   42.1017 C.3     1  UNL1        0.0820
      6 C          22.0884    7.9099   40.6083 C.ar    1  UNL1        0.1308
      7 C          22.9813    9.5594   39.0872 C.ar    1  UNL1       -0.0442
      8 O          21.6957    7.4708   41.8426 O.3     1  UNL1       -0.5059
      9 C          22.0085    6.9971   39.5579 C.ar    1  UNL1       -0.0194
     10 C          22.8956    8.6390   38.0397 C.ar    1  UNL1       -0.0608
     11 C          22.4070    7.3586   38.2762 C.ar    1  UNL1       -0.0583
     12 H          23.7806   13.3313   41.7267 H       1  UNL1        0.0661
     13 H          23.5239   12.1583   43.0407 H       1  UNL1        0.0661
     14 H          22.1211   12.9603   42.2743 H       1  UNL1        0.0661
     15 H          23.3601   10.5533   38.8723 H       1  UNL1        0.0627
     16 H          21.3651    6.5516   41.7673 H       1  UNL1        0.2922
     17 H          21.6349    5.9915   39.7409 H       1  UNL1        0.0654
     18 H          23.2088    8.9252   37.0406 H       1  UNL1        0.0618
     19 H          22.3408    6.6405   37.4625 H       1  UNL1        0.0619
@<TRIPOS>BOND
     1     1     2    2
     2     2     3    1
     3     2     4    1
     4     3     5    1
     5     4     6   ar
     6     4     7   ar
     7     6     8    1
     8     6     9   ar
     9     7    10   ar
    10     9    11   ar
    11    10    11   ar
    12     5    12    1
    13     5    13    1
    14     5    14    1
    15     7    15    1
    16     8    16    1
    17     9    17    1
    18    10    18    1
    19    11    19    1
@<TRIPOS>SUBSTRUCTURE
     1 UNL1        1 TEMP              0 ****  ****    0 ROOT


##########                                Name:                  41
##########                DOCK_Rotatable_Bonds:                   3
##########                         Heavy_Atoms:                  11
##########                    Molecular_Weight:              152.15
##########                       Formal_Charge:         -8.9407e-08
##########                     HBond_Acceptors:                   3
##########                        HBond_Donors:                   1
##########                    Descriptor_Score:           40.034107
##########          Footprint_Similarity_Score:           11.904499
##########                 desc_FPS_vdw_energy:          -21.588118
##########                  desc_FPS_es_energy:           -0.049213
##########              desc_FPS_vdw+es_energy:          -21.637331
##########                  desc_FPS_num_hbond:                   1
##########                    desc_FPS_vdw_fps:            9.890795
##########                     desc_FPS_es_fps:            2.013704
##########                     desc_FPS_hb_fps:            1.000000
##########              desc_FPS_vdw_fp_numres:                 219
##########               desc_FPS_es_fp_numres:                 219
##########               desc_FPS_hb_fp_numres:                 219
##########                 Pharmacophore_Score:           20.000000
##########              desc_FMS_num_match_tot:                   0
##########              desc_FMS_max_match_ref:                  10
##########              desc_FMS_max_match_mol:                   5
##########                 desc_FMS_match_rate:            4.000000
##########                desc_FMS_match_resid:            0.000000
##########    desc_FMS_num_hydrophobic_matched:                   0
##########          desc_FMS_num_donor_matched:                   0
##########       desc_FMS_num_acceptor_matched:                   0
##########       desc_FMS_num_aromatic_matched:                   0
##########       desc_FMS_num_positive_matched:                   0
##########       desc_FMS_num_negative_matched:                   0
##########           desc_FMS_num_ring_matched:                   0
########## Hungarian_Matching_Similarity_Score:            8.129607
##########       desc_HMS_num_unmtchd_hvy_atms:                  14
##########           desc_HMS_num_ref_hvy_atms:                  23
##########        desc_HMS_rmsd_mtchd_hvy_atms:           10.086129
##########               Property_Volume_Score:            0.000000
##########               desc_VOS_geometric_vo:            0.000000
##########                desc_VOS_hvy_atom_vo:            0.000000
##########            desc_VOS_pos_chrg_atm_vo:            0.000000
##########            desc_VOS_neg_chrg_atm_vo:            0.000000
##########         desc_VOS_hydrophobic_atm_vo:            0.000000
##########         desc_VOS_hydrophilic_atm_vo:            0.000000
##########           Internal_energy_repulsive:            6.107327

@<TRIPOS>MOLECULE
41
 19 19 1 0 0
SMALL
GASTEIGER


@<TRIPOS>ATOM
      1 O          22.0010    6.3757   38.9129 O.2     1  UNL1       -0.2448
      2 C          22.4608    7.5023   38.8906 C.2     1  UNL1        0.3425
      3 O          22.9734    8.0403   37.7578 O.3     1  UNL1       -0.4644
      4 C          22.4698    8.4026   40.1083 C.ar    1  UNL1        0.1002
      5 C          22.6767    7.4256   36.4763 C.3     1  UNL1        0.0820
      6 C          23.1649    9.6298   40.1303 C.ar    1  UNL1        0.1308
      7 C          21.7620    8.0195   41.2576 C.ar    1  UNL1       -0.0442
      8 O          23.9075   10.0753   39.0717 O.3     1  UNL1       -0.5059
      9 C          23.1320   10.4396   41.2644 C.ar    1  UNL1       -0.0194
     10 C          21.7324    8.8384   42.3891 C.ar    1  UNL1       -0.0608
     11 C          22.4163   10.0494   42.3904 C.ar    1  UNL1       -0.0583
     12 H          22.8252    8.1659   35.6865 H       1  UNL1        0.0661
     13 H          21.6388    7.0807   36.4501 H       1  UNL1        0.0661
     14 H          23.3502    6.5790   36.3167 H       1  UNL1        0.0661
     15 H          21.2138    7.0834   41.2825 H       1  UNL1        0.0627
     16 H          24.1675    9.3112   38.5163 H       1  UNL1        0.2922
     17 H          23.6731   11.3837   41.2721 H       1  UNL1        0.0654
     18 H          21.1730    8.5293   43.2666 H       1  UNL1        0.0618
     19 H          22.3955   10.6874   43.2705 H       1  UNL1        0.0619
@<TRIPOS>BOND
     1     1     2    2
     2     2     3    1
     3     2     4    1
     4     3     5    1
     5     4     6   ar
     6     4     7   ar
     7     6     8    1
     8     6     9   ar
     9     7    10   ar
    10     9    11   ar
    11    10    11   ar
    12     5    12    1
    13     5    13    1
    14     5    14    1
    15     7    15    1
    16     8    16    1
    17     9    17    1
    18    10    18    1
    19    11    19    1
@<TRIPOS>SUBSTRUCTURE
     1 UNL1        1 TEMP              0 ****  ****    0 ROOT


##########                                Name:                  42
##########                DOCK_Rotatable_Bonds:                   9
##########                         Heavy_Atoms:                  20
##########                    Molecular_Weight:             286.282
##########                       Formal_Charge:         1.49012e-07
##########                     HBond_Acceptors:                   7
##########                        HBond_Donors:                   5
##########                    Descriptor_Score:           14.290098
##########          Footprint_Similarity_Score:            5.495895
##########                 desc_FPS_vdw_energy:          -29.760492
##########                  desc_FPS_es_energy:           -4.526736
##########              desc_FPS_vdw+es_energy:          -34.287228
##########                  desc_FPS_num_hbond:                   2
##########                    desc_FPS_vdw_fps:            3.843006
##########                     desc_FPS_es_fps:            1.652889
##########                     desc_FPS_hb_fps:            1.414214
##########              desc_FPS_vdw_fp_numres:                 219
##########               desc_FPS_es_fp_numres:                 219
##########               desc_FPS_hb_fp_numres:                 219
##########                 Pharmacophore_Score:            6.224480
##########              desc_FMS_num_match_tot:                   1
##########              desc_FMS_max_match_ref:                  10
##########              desc_FMS_max_match_mol:                  14
##########                 desc_FMS_match_rate:            0.900000
##########                desc_FMS_match_resid:            1.724480
##########    desc_FMS_num_hydrophobic_matched:                   0
##########          desc_FMS_num_donor_matched:                   0
##########       desc_FMS_num_acceptor_matched:                   1
##########       desc_FMS_num_aromatic_matched:                   0
##########       desc_FMS_num_positive_matched:                   0
##########       desc_FMS_num_negative_matched:                   0
##########           desc_FMS_num_ring_matched:                   0
########## Hungarian_Matching_Similarity_Score:            2.860822
##########       desc_HMS_num_unmtchd_hvy_atms:                  27
##########           desc_HMS_num_ref_hvy_atms:                  23
##########        desc_HMS_rmsd_mtchd_hvy_atms:            1.991257
##########               Property_Volume_Score:            0.291100
##########               desc_VOS_geometric_vo:            0.505175
##########                desc_VOS_hvy_atom_vo:            0.512282
##########            desc_VOS_pos_chrg_atm_vo:            0.257140
##########            desc_VOS_neg_chrg_atm_vo:            0.231009
##########         desc_VOS_hydrophobic_atm_vo:            0.098979
##########         desc_VOS_hydrophilic_atm_vo:            0.142014
##########           Internal_energy_repulsive:            5.921881

@<TRIPOS>MOLECULE
42
 38 39 1 0 0
SMALL
GASTEIGER


@<TRIPOS>ATOM
      1 O          13.6706   12.0254   42.5512 O.3     1  UNL1       -0.3313
      2 C          14.7301   12.5746   43.3786 C.3     1  UNL1        0.2308
      3 C          12.4257   12.7769   42.4890 C.3     1  UNL1        0.1140
      4 O          15.1739   13.8426   42.8152 O.3     1  UNL1       -0.4605
      5 C          14.1813   12.6965   44.8340 C.3     1  UNL1        0.1454
      6 C          11.8494   12.9106   43.9265 C.3     1  UNL1        0.1120
      7 C          11.4715   11.9945   41.5592 C.3     1  UNL1        0.0731
      8 C          16.1238   13.9752   41.8092 C.ar    1  UNL1        0.1293
      9 O          15.1178   13.2538   45.7564 O.3     1  UNL1       -0.3829
     10 C          12.8839   13.5253   44.8886 C.3     1  UNL1        0.1152
     11 O          10.6878   13.7384   43.9564 O.3     1  UNL1       -0.3865
     12 O          11.2114   10.6970   42.0960 O.3     1  UNL1       -0.3924
     13 C          17.0433   15.0338   41.8638 C.ar    1  UNL1        0.0196
     14 C          16.1898   13.0717   40.7382 C.ar    1  UNL1       -0.0195
     15 O          13.1317   14.9113   44.5774 O.3     1  UNL1       -0.3864
     16 C          18.0580   15.1161   40.9050 C.ar    1  UNL1       -0.0529
     17 C          16.9467   16.1262   42.9220 C.3     1  UNL1        0.0727
     18 C          17.2104   13.1543   39.7984 C.ar    1  UNL1       -0.0583
     19 C          18.1569   14.1681   39.8909 C.ar    1  UNL1       -0.0612
     20 O          16.2804   17.2750   42.3966 O.3     1  UNL1       -0.3903
     21 H          15.5694   11.8650   43.3270 H       1  UNL1        0.1084
     22 H          12.6326   13.7623   42.0611 H       1  UNL1        0.0647
     23 H          13.9491   11.6832   45.1738 H       1  UNL1        0.0683
     24 H          11.5774   11.9142   44.2876 H       1  UNL1        0.0647
     25 H          11.9262   11.8912   40.5702 H       1  UNL1        0.0584
     26 H          10.5277   12.5367   41.4539 H       1  UNL1        0.0584
     27 H          15.5701   12.5136   46.2025 H       1  UNL1        0.2102
     28 H          12.4799   13.4705   45.9034 H       1  UNL1        0.0648
     29 H          10.5163   13.9275   44.8966 H       1  UNL1        0.2100
     30 H          11.9826   10.4598   42.6584 H       1  UNL1        0.2095
     31 H          15.4630   12.2715   40.6295 H       1  UNL1        0.0654
     32 H          13.0466   15.0417   43.6075 H       1  UNL1        0.2100
     33 H          18.7849   15.9238   40.9509 H       1  UNL1        0.0622
     34 H          17.9338   16.4223   43.2845 H       1  UNL1        0.0608
     35 H          16.3748   15.7573   43.7770 H       1  UNL1        0.0608
     36 H          17.2718   12.4199   38.9992 H       1  UNL1        0.0619
     37 H          18.9622   14.2277   39.1635 H       1  UNL1        0.0618
     38 H          15.8508   17.7267   43.1421 H       1  UNL1        0.2098
@<TRIPOS>BOND
     1     1     2    1
     2     1     3    1
     3     2     4    1
     4     2     5    1
     5     3     6    1
     6     3     7    1
     7     4     8    1
     8     5     9    1
     9     5    10    1
    10     6    11    1
    11     7    12    1
    12     8    13   ar
    13     8    14   ar
    14    10    15    1
    15    13    16   ar
    16    13    17    1
    17    14    18   ar
    18    16    19   ar
    19    17    20    1
    20     6    10    1
    21    18    19   ar
    22     2    21    1
    23     3    22    1
    24     5    23    1
    25     6    24    1
    26     7    25    1
    27     7    26    1
    28     9    27    1
    29    10    28    1
    30    11    29    1
    31    12    30    1
    32    14    31    1
    33    15    32    1
    34    16    33    1
    35    17    34    1
    36    17    35    1
    37    18    36    1
    38    19    37    1
    39    20    38    1
@<TRIPOS>SUBSTRUCTURE
     1 UNL1        1 TEMP              0 ****  ****    0 ROOT


##########                                Name:                  42
##########                DOCK_Rotatable_Bonds:                   9
##########                         Heavy_Atoms:                  20
##########                    Molecular_Weight:             286.282
##########                       Formal_Charge:         1.49012e-07
##########                     HBond_Acceptors:                   7
##########                        HBond_Donors:                   5
##########                    Descriptor_Score:           29.148741
##########          Footprint_Similarity_Score:            6.052278
##########                 desc_FPS_vdw_energy:          -27.966894
##########                  desc_FPS_es_energy:           -4.667991
##########              desc_FPS_vdw+es_energy:          -32.634884
##########                  desc_FPS_num_hbond:                   3
##########                    desc_FPS_vdw_fps:            4.092196
##########                     desc_FPS_es_fps:            1.960082
##########                     desc_FPS_hb_fps:            1.732051
##########              desc_FPS_vdw_fp_numres:                 219
##########               desc_FPS_es_fp_numres:                 219
##########               desc_FPS_hb_fp_numres:                 219
##########                 Pharmacophore_Score:           20.000000
##########              desc_FMS_num_match_tot:                   0
##########              desc_FMS_max_match_ref:                  10
##########              desc_FMS_max_match_mol:                  14
##########                 desc_FMS_match_rate:            4.000000
##########                desc_FMS_match_resid:            0.000000
##########    desc_FMS_num_hydrophobic_matched:                   0
##########          desc_FMS_num_donor_matched:                   0
##########       desc_FMS_num_acceptor_matched:                   0
##########       desc_FMS_num_aromatic_matched:                   0
##########       desc_FMS_num_positive_matched:                   0
##########       desc_FMS_num_negative_matched:                   0
##########           desc_FMS_num_ring_matched:                   0
########## Hungarian_Matching_Similarity_Score:            3.347523
##########       desc_HMS_num_unmtchd_hvy_atms:                  27
##########           desc_HMS_num_ref_hvy_atms:                  23
##########        desc_HMS_rmsd_mtchd_hvy_atms:            2.477958
##########               Property_Volume_Score:            0.251061
##########               desc_VOS_geometric_vo:            0.459605
##########                desc_VOS_hvy_atom_vo:            0.450471
##########            desc_VOS_pos_chrg_atm_vo:            0.246915
##########            desc_VOS_neg_chrg_atm_vo:            0.188764
##########         desc_VOS_hydrophobic_atm_vo:            0.081858
##########         desc_VOS_hydrophilic_atm_vo:            0.078753
##########           Internal_energy_repulsive:            6.162181

@<TRIPOS>MOLECULE
42
 38 39 1 0 0
SMALL
GASTEIGER


@<TRIPOS>ATOM
      1 O          13.2161   12.2797   41.8667 O.3     1  UNL1       -0.3313
      2 C          14.5382   12.2613   42.4669 C.3     1  UNL1        0.2308
      3 C          12.2202   13.1381   42.4911 C.3     1  UNL1        0.1140
      4 O          15.1487   13.5768   42.3292 O.3     1  UNL1       -0.4605
      5 C          14.3809   11.7984   43.9485 C.3     1  UNL1        0.1454
      6 C          12.0360   12.6972   43.9702 C.3     1  UNL1        0.1120
      7 C          10.9152   12.9810   41.6791 C.3     1  UNL1        0.0731
      8 C          16.1945   13.8803   41.4654 C.ar    1  UNL1        0.1293
      9 O          15.6108   11.7615   44.6726 O.3     1  UNL1       -0.3829
     10 C          13.3815   12.6808   44.7204 C.3     1  UNL1        0.1152
     11 O          11.1585   13.5717   44.6780 O.3     1  UNL1       -0.3865
     12 O          11.0155   11.8661   40.7925 O.3     1  UNL1       -0.3924
     13 C          17.0086   14.9918   41.7314 C.ar    1  UNL1        0.0196
     14 C          16.4607   13.0980   40.3319 C.ar    1  UNL1       -0.0195
     15 O          13.8943   14.0153   44.9084 O.3     1  UNL1       -0.3864
     16 C          18.1172   15.2452   40.9175 C.ar    1  UNL1       -0.0529
     17 C          16.6976   15.9605   42.8660 C.3     1  UNL1        0.0727
     18 C          17.5730   13.3503   39.5375 C.ar    1  UNL1       -0.0583
     19 C          18.4132   14.4155   39.8401 C.ar    1  UNL1       -0.0612
     20 O          15.9541   17.0790   42.3800 O.3     1  UNL1       -0.3903
     21 H          15.1373   11.5439   41.8863 H       1  UNL1        0.1084
     22 H          12.5671   14.1742   42.4357 H       1  UNL1        0.0647
     23 H          13.9834   10.7798   43.9245 H       1  UNL1        0.0683
     24 H          11.6100   11.6895   43.9836 H       1  UNL1        0.0647
     25 H          10.7335   13.8891   41.0976 H       1  UNL1        0.0584
     26 H          10.0715   12.8270   42.3575 H       1  UNL1        0.0584
     27 H          15.4248   11.3843   45.5528 H       1  UNL1        0.2102
     28 H          13.2165   12.2368   45.7062 H       1  UNL1        0.0648
     29 H          10.9504   13.1226   45.5171 H       1  UNL1        0.2100
     30 H          11.8928   11.9281   40.3522 H       1  UNL1        0.2095
     31 H          15.8218   12.2624   40.0602 H       1  UNL1        0.0654
     32 H          14.5141   14.0156   45.6705 H       1  UNL1        0.2100
     33 H          18.7629   16.0948   41.1278 H       1  UNL1        0.0622
     34 H          17.6097   16.3215   43.3469 H       1  UNL1        0.0608
     35 H          16.0988   15.4529   43.6262 H       1  UNL1        0.0608
     36 H          17.7888   12.7078   38.6876 H       1  UNL1        0.0619
     37 H          19.2897   14.6075   39.2269 H       1  UNL1        0.0618
     38 H          16.4357   17.4367   41.6155 H       1  UNL1        0.2098
@<TRIPOS>BOND
     1     1     2    1
     2     1     3    1
     3     2     4    1
     4     2     5    1
     5     3     6    1
     6     3     7    1
     7     4     8    1
     8     5     9    1
     9     5    10    1
    10     6    11    1
    11     7    12    1
    12     8    13   ar
    13     8    14   ar
    14    10    15    1
    15    13    16   ar
    16    13    17    1
    17    14    18   ar
    18    16    19   ar
    19    17    20    1
    20     6    10    1
    21    18    19   ar
    22     2    21    1
    23     3    22    1
    24     5    23    1
    25     6    24    1
    26     7    25    1
    27     7    26    1
    28     9    27    1
    29    10    28    1
    30    11    29    1
    31    12    30    1
    32    14    31    1
    33    15    32    1
    34    16    33    1
    35    17    34    1
    36    17    35    1
    37    18    36    1
    38    19    37    1
    39    20    38    1
@<TRIPOS>SUBSTRUCTURE
     1 UNL1        1 TEMP              0 ****  ****    0 ROOT


##########                                Name:                  42
##########                DOCK_Rotatable_Bonds:                   9
##########                         Heavy_Atoms:                  20
##########                    Molecular_Weight:             286.282
##########                       Formal_Charge:         1.49012e-07
##########                     HBond_Acceptors:                   7
##########                        HBond_Donors:                   5
##########                    Descriptor_Score:           28.189165
##########          Footprint_Similarity_Score:            5.139730
##########                 desc_FPS_vdw_energy:          -29.816711
##########                  desc_FPS_es_energy:           -3.697831
##########              desc_FPS_vdw+es_energy:          -33.514542
##########                  desc_FPS_num_hbond:                   2
##########                    desc_FPS_vdw_fps:            3.326261
##########                     desc_FPS_es_fps:            1.813470
##########                     desc_FPS_hb_fps:            1.414214
##########              desc_FPS_vdw_fp_numres:                 219
##########               desc_FPS_es_fp_numres:                 219
##########               desc_FPS_hb_fp_numres:                 219
##########                 Pharmacophore_Score:           20.000000
##########              desc_FMS_num_match_tot:                   0
##########              desc_FMS_max_match_ref:                  10
##########              desc_FMS_max_match_mol:                  14
##########                 desc_FMS_match_rate:            4.000000
##########                desc_FMS_match_resid:            0.000000
##########    desc_FMS_num_hydrophobic_matched:                   0
##########          desc_FMS_num_donor_matched:                   0
##########       desc_FMS_num_acceptor_matched:                   0
##########       desc_FMS_num_aromatic_matched:                   0
##########       desc_FMS_num_positive_matched:                   0
##########       desc_FMS_num_negative_matched:                   0
##########           desc_FMS_num_ring_matched:                   0
########## Hungarian_Matching_Similarity_Score:            3.313137
##########       desc_HMS_num_unmtchd_hvy_atms:                  27
##########           desc_HMS_num_ref_hvy_atms:                  23
##########        desc_HMS_rmsd_mtchd_hvy_atms:            2.443572
##########               Property_Volume_Score:            0.263703
##########               desc_VOS_geometric_vo:            0.488074
##########                desc_VOS_hvy_atom_vo:            0.476468
##########            desc_VOS_pos_chrg_atm_vo:            0.246712
##########            desc_VOS_neg_chrg_atm_vo:            0.208477
##########         desc_VOS_hydrophobic_atm_vo:            0.087413
##########         desc_VOS_hydrophilic_atm_vo:            0.075072
##########           Internal_energy_repulsive:            5.654836

@<TRIPOS>MOLECULE
42
 38 39 1 0 0
SMALL
GASTEIGER


@<TRIPOS>ATOM
      1 O          13.2630   12.5500   41.8832 O.3     1  UNL1       -0.3313
      2 C          14.5628   12.3474   42.4982 C.3     1  UNL1        0.2308
      3 C          12.3516   13.4656   42.5537 C.3     1  UNL1        0.1140
      4 O          15.3130   13.5956   42.4626 O.3     1  UNL1       -0.4605
      5 C          14.3260   11.8026   43.9408 C.3     1  UNL1        0.1454
      6 C          12.0904   12.9457   43.9951 C.3     1  UNL1        0.1120
      7 C          11.0546   13.5070   41.7152 C.3     1  UNL1        0.0731
      8 C          16.3811   13.8560   41.6121 C.ar    1  UNL1        0.1293
      9 O          15.5294   11.5830   44.6768 O.3     1  UNL1       -0.3829
     10 C          13.4105   12.7321   44.7602 C.3     1  UNL1        0.1152
     11 O          11.2968   13.8586   44.7516 O.3     1  UNL1       -0.3865
     12 O          10.8139   12.2345   41.1133 O.3     1  UNL1       -0.3924
     13 C          17.3709   14.7688   42.0073 C.ar    1  UNL1        0.0196
     14 C          16.4976   13.2239   40.3654 C.ar    1  UNL1       -0.0195
     15 O          14.0588   13.9872   45.0495 O.3     1  UNL1       -0.3864
     16 C          18.4935   14.9627   41.1963 C.ar    1  UNL1       -0.0529
     17 C          17.2409   15.5898   43.2846 C.3     1  UNL1        0.0727
     18 C          17.6239   13.4130   39.5733 C.ar    1  UNL1       -0.0583
     19 C          18.6324   14.2709   39.9967 C.ar    1  UNL1       -0.0612
     20 O          17.6340   14.8165   44.4193 O.3     1  UNL1       -0.3903
     21 H          15.0938   11.6114   41.8761 H       1  UNL1        0.1084
     22 H          12.8082   14.4595   42.5769 H       1  UNL1        0.0647
     23 H          13.8225   10.8370   43.8391 H       1  UNL1        0.0683
     24 H          11.5591   11.9914   43.9311 H       1  UNL1        0.0647
     25 H          11.1481   14.2645   40.9322 H       1  UNL1        0.0584
     26 H          10.2070   13.7692   42.3544 H       1  UNL1        0.0584
     27 H          15.2798   11.2602   45.5629 H       1  UNL1        0.2102
     28 H          13.1784   12.2413   45.7095 H       1  UNL1        0.0648
     29 H          11.5005   13.6807   45.6875 H       1  UNL1        0.2100
     30 H          11.6880   11.8788   40.8361 H       1  UNL1        0.2095
     31 H          15.7259   12.5530   39.9985 H       1  UNL1        0.0654
     32 H          14.8728   13.8141   45.5714 H       1  UNL1        0.2100
     33 H          19.2734   15.6555   41.5043 H       1  UNL1        0.0622
     34 H          16.2178   15.9432   43.4321 H       1  UNL1        0.0608
     35 H          17.8905   16.4664   43.2234 H       1  UNL1        0.0608
     36 H          17.7181   12.8819   38.6295 H       1  UNL1        0.0619
     37 H          19.5191   14.4114   39.3841 H       1  UNL1        0.0618
     38 H          16.9720   14.9659   45.1148 H       1  UNL1        0.2098
@<TRIPOS>BOND
     1     1     2    1
     2     1     3    1
     3     2     4    1
     4     2     5    1
     5     3     6    1
     6     3     7    1
     7     4     8    1
     8     5     9    1
     9     5    10    1
    10     6    11    1
    11     7    12    1
    12     8    13   ar
    13     8    14   ar
    14    10    15    1
    15    13    16   ar
    16    13    17    1
    17    14    18   ar
    18    16    19   ar
    19    17    20    1
    20     6    10    1
    21    18    19   ar
    22     2    21    1
    23     3    22    1
    24     5    23    1
    25     6    24    1
    26     7    25    1
    27     7    26    1
    28     9    27    1
    29    10    28    1
    30    11    29    1
    31    12    30    1
    32    14    31    1
    33    15    32    1
    34    16    33    1
    35    17    34    1
    36    17    35    1
    37    18    36    1
    38    19    37    1
    39    20    38    1
@<TRIPOS>SUBSTRUCTURE
     1 UNL1        1 TEMP              0 ****  ****    0 ROOT


##########                                Name:                  43
##########                DOCK_Rotatable_Bonds:                   1
##########                         Heavy_Atoms:                  10
##########                    Molecular_Weight:             136.237
##########                       Formal_Charge:         -0.00040001
##########                     HBond_Acceptors:                   0
##########                        HBond_Donors:                   0
##########                    Descriptor_Score:           42.814198
##########          Footprint_Similarity_Score:           11.271673
##########                 desc_FPS_vdw_energy:          -20.422642
##########                  desc_FPS_es_energy:            0.075190
##########              desc_FPS_vdw+es_energy:          -20.347452
##########                  desc_FPS_num_hbond:                   0
##########                    desc_FPS_vdw_fps:            9.453733
##########                     desc_FPS_es_fps:            1.817940
##########                     desc_FPS_hb_fps:            0.000000
##########              desc_FPS_vdw_fp_numres:                 219
##########               desc_FPS_es_fp_numres:                 219
##########               desc_FPS_hb_fp_numres:                 219
##########                 Pharmacophore_Score:           20.000000
##########              desc_FMS_num_match_tot:                   0
##########              desc_FMS_max_match_ref:                  10
##########              desc_FMS_max_match_mol:                   5
##########                 desc_FMS_match_rate:            4.000000
##########                desc_FMS_match_resid:            0.000000
##########    desc_FMS_num_hydrophobic_matched:                   0
##########          desc_FMS_num_donor_matched:                   0
##########       desc_FMS_num_acceptor_matched:                   0
##########       desc_FMS_num_aromatic_matched:                   0
##########       desc_FMS_num_positive_matched:                   0
##########       desc_FMS_num_negative_matched:                   0
##########           desc_FMS_num_ring_matched:                   0
########## Hungarian_Matching_Similarity_Score:           11.542523
##########       desc_HMS_num_unmtchd_hvy_atms:                  25
##########           desc_HMS_num_ref_hvy_atms:                  23
##########        desc_HMS_rmsd_mtchd_hvy_atms:           11.107741
##########               Property_Volume_Score:            0.000000
##########               desc_VOS_geometric_vo:            0.000000
##########                desc_VOS_hvy_atom_vo:            0.000000
##########            desc_VOS_pos_chrg_atm_vo:            0.000000
##########            desc_VOS_neg_chrg_atm_vo:            0.000000
##########         desc_VOS_hydrophobic_atm_vo:            0.000000
##########         desc_VOS_hydrophilic_atm_vo:            0.000000
##########           Internal_energy_repulsive:           10.033826

@<TRIPOS>MOLECULE
43
 26 26 1 0 0
SMALL
GASTEIGER


@<TRIPOS>ATOM
      1 C          22.6373    8.9160   40.0396 C.2     1  UNL1       -0.0667
      2 C          23.5469    9.6216   39.3658 C.2     1  UNL1       -0.0623
      3 C          22.1404    9.2916   41.4346 C.3     1  UNL1       -0.0253
      4 C          22.0025    7.6520   39.4772 C.3     1  UNL1       -0.0275
      5 C          23.9675    9.2921   38.1488 C.2     1  UNL1       -0.0628
      6 C          21.6118    8.0501   42.1813 C.3     1  UNL1       -0.0589
      7 C          23.2015   10.0211   42.2911 C.3     1  UNL1       -0.0589
      8 C          22.4953    7.2671   38.0635 C.3     1  UNL1       -0.0280
      9 C          23.5228    8.2246   37.4911 C.2     1  UNL1       -0.0723
     10 C          24.0106    7.8711   36.1005 C.3     1  UNL1       -0.0435
     11 H          23.9760   10.5114   39.8173 H       1  UNL1        0.0617
     12 H          21.3080    9.9923   41.3272 H       1  UNL1        0.0340
     13 H          20.9170    7.7746   39.4450 H       1  UNL1        0.0313
     14 H          22.2018    6.8175   40.1539 H       1  UNL1        0.0313
     15 H          24.7088    9.9312   37.6743 H       1  UNL1        0.0617
     16 H          22.4074    7.3157   42.3262 H       1  UNL1        0.0235
     17 H          20.8061    7.5765   41.6156 H       1  UNL1        0.0235
     18 H          21.2169    8.3300   43.1607 H       1  UNL1        0.0235
     19 H          24.0238    9.3559   42.5629 H       1  UNL1        0.0235
     20 H          22.7526   10.3901   43.2163 H       1  UNL1        0.0235
     21 H          23.6096   10.8775   41.7492 H       1  UNL1        0.0235
     22 H          21.6341    7.2171   37.3926 H       1  UNL1        0.0313
     23 H          22.9214    6.2613   38.1009 H       1  UNL1        0.0313
     24 H          24.7452    8.5935   35.7371 H       1  UNL1        0.0274
     25 H          23.1782    7.8552   35.3939 H       1  UNL1        0.0274
     26 H          24.4798    6.8846   36.0969 H       1  UNL1        0.0274
@<TRIPOS>BOND
     1     1     2    2
     2     1     3    1
     3     1     4    1
     4     2     5    1
     5     3     6    1
     6     3     7    1
     7     4     8    1
     8     5     9    2
     9     9    10    1
    10     8     9    1
    11     2    11    1
    12     3    12    1
    13     4    13    1
    14     4    14    1
    15     5    15    1
    16     6    16    1
    17     6    17    1
    18     6    18    1
    19     7    19    1
    20     7    20    1
    21     7    21    1
    22     8    22    1
    23     8    23    1
    24    10    24    1
    25    10    25    1
    26    10    26    1
@<TRIPOS>SUBSTRUCTURE
     1 UNL1        1 TEMP              0 ****  ****    0 ROOT


##########                                Name:                  43
##########                DOCK_Rotatable_Bonds:                   1
##########                         Heavy_Atoms:                  10
##########                    Molecular_Weight:             136.237
##########                       Formal_Charge:         -0.00040001
##########                     HBond_Acceptors:                   0
##########                        HBond_Donors:                   0
##########                    Descriptor_Score:           42.925564
##########          Footprint_Similarity_Score:           11.052611
##########                 desc_FPS_vdw_energy:          -21.599726
##########                  desc_FPS_es_energy:            0.122797
##########              desc_FPS_vdw+es_energy:          -21.476929
##########                  desc_FPS_num_hbond:                   0
##########                    desc_FPS_vdw_fps:            9.233253
##########                     desc_FPS_es_fps:            1.819359
##########                     desc_FPS_hb_fps:            0.000000
##########              desc_FPS_vdw_fp_numres:                 219
##########               desc_FPS_es_fp_numres:                 219
##########               desc_FPS_hb_fp_numres:                 219
##########                 Pharmacophore_Score:           20.000000
##########              desc_FMS_num_match_tot:                   0
##########              desc_FMS_max_match_ref:                  10
##########              desc_FMS_max_match_mol:                   5
##########                 desc_FMS_match_rate:            4.000000
##########                desc_FMS_match_resid:            0.000000
##########    desc_FMS_num_hydrophobic_matched:                   0
##########          desc_FMS_num_donor_matched:                   0
##########       desc_FMS_num_acceptor_matched:                   0
##########       desc_FMS_num_aromatic_matched:                   0
##########       desc_FMS_num_positive_matched:                   0
##########       desc_FMS_num_negative_matched:                   0
##########           desc_FMS_num_ring_matched:                   0
########## Hungarian_Matching_Similarity_Score:           11.872952
##########       desc_HMS_num_unmtchd_hvy_atms:                  25
##########           desc_HMS_num_ref_hvy_atms:                  23
##########        desc_HMS_rmsd_mtchd_hvy_atms:           11.438170
##########               Property_Volume_Score:            0.000000
##########               desc_VOS_geometric_vo:            0.000000
##########                desc_VOS_hvy_atom_vo:            0.000000
##########            desc_VOS_pos_chrg_atm_vo:            0.000000
##########            desc_VOS_neg_chrg_atm_vo:            0.000000
##########         desc_VOS_hydrophobic_atm_vo:            0.000000
##########         desc_VOS_hydrophilic_atm_vo:            0.000000
##########           Internal_energy_repulsive:            8.537085

@<TRIPOS>MOLECULE
43
 26 26 1 0 0
SMALL
GASTEIGER


@<TRIPOS>ATOM
      1 C          23.0852    8.8099   39.5721 C.2     1  UNL1       -0.0667
      2 C          23.8360    9.5975   38.8006 C.2     1  UNL1       -0.0623
      3 C          22.9204    9.0108   41.0776 C.3     1  UNL1       -0.0253
      4 C          22.3145    7.6192   39.0197 C.3     1  UNL1       -0.0275
      5 C          23.9672    9.4204   37.4899 C.2     1  UNL1       -0.0628
      6 C          22.8208   10.5105   41.4232 C.3     1  UNL1       -0.0589
      7 C          21.7183    8.2421   41.6741 C.3     1  UNL1       -0.0589
      8 C          22.4711    7.4112   37.4959 C.3     1  UNL1       -0.0280
      9 C          23.3646    8.4374   36.8261 C.2     1  UNL1       -0.0723
     10 C          23.5221    8.2578   35.3296 C.3     1  UNL1       -0.0435
     11 H          24.3737   10.4289   39.2473 H       1  UNL1        0.0617
     12 H          23.8082    8.6143   41.5776 H       1  UNL1        0.0340
     13 H          21.2521    7.7379   39.2465 H       1  UNL1        0.0313
     14 H          22.6424    6.7102   39.5299 H       1  UNL1        0.0313
     15 H          24.5971   10.1168   36.9410 H       1  UNL1        0.0617
     16 H          21.9417   10.9597   40.9555 H       1  UNL1        0.0235
     17 H          23.7070   11.0446   41.0725 H       1  UNL1        0.0235
     18 H          22.7477   10.6516   42.5041 H       1  UNL1        0.0235
     19 H          20.7677    8.6546   41.3294 H       1  UNL1        0.0235
     20 H          21.7323    8.3051   42.7646 H       1  UNL1        0.0235
     21 H          21.7620    7.1863   41.3965 H       1  UNL1        0.0235
     22 H          21.4810    7.4373   37.0342 H       1  UNL1        0.0313
     23 H          22.8736    6.4110   37.3166 H       1  UNL1        0.0313
     24 H          24.1720    9.0235   34.8997 H       1  UNL1        0.0274
     25 H          22.5527    8.3222   34.8309 H       1  UNL1        0.0274
     26 H          23.9578    7.2820   35.1033 H       1  UNL1        0.0274
@<TRIPOS>BOND
     1     1     2    2
     2     1     3    1
     3     1     4    1
     4     2     5    1
     5     3     6    1
     6     3     7    1
     7     4     8    1
     8     5     9    2
     9     9    10    1
    10     8     9    1
    11     2    11    1
    12     3    12    1
    13     4    13    1
    14     4    14    1
    15     5    15    1
    16     6    16    1
    17     6    17    1
    18     6    18    1
    19     7    19    1
    20     7    20    1
    21     7    21    1
    22     8    22    1
    23     8    23    1
    24    10    24    1
    25    10    25    1
    26    10    26    1
@<TRIPOS>SUBSTRUCTURE
     1 UNL1        1 TEMP              0 ****  ****    0 ROOT


##########                                Name:                  43
##########                DOCK_Rotatable_Bonds:                   1
##########                         Heavy_Atoms:                  10
##########                    Molecular_Weight:             136.237
##########                       Formal_Charge:         -0.00040001
##########                     HBond_Acceptors:                   0
##########                        HBond_Donors:                   0
##########                    Descriptor_Score:           42.467995
##########          Footprint_Similarity_Score:           11.221549
##########                 desc_FPS_vdw_energy:          -20.894053
##########                  desc_FPS_es_energy:            0.038771
##########              desc_FPS_vdw+es_energy:          -20.855282
##########                  desc_FPS_num_hbond:                   0
##########                    desc_FPS_vdw_fps:            9.396413
##########                     desc_FPS_es_fps:            1.825136
##########                     desc_FPS_hb_fps:            0.000000
##########              desc_FPS_vdw_fp_numres:                 219
##########               desc_FPS_es_fp_numres:                 219
##########               desc_FPS_hb_fp_numres:                 219
##########                 Pharmacophore_Score:           20.000000
##########              desc_FMS_num_match_tot:                   0
##########              desc_FMS_max_match_ref:                  10
##########              desc_FMS_max_match_mol:                   5
##########                 desc_FMS_match_rate:            4.000000
##########                desc_FMS_match_resid:            0.000000
##########    desc_FMS_num_hydrophobic_matched:                   0
##########          desc_FMS_num_donor_matched:                   0
##########       desc_FMS_num_acceptor_matched:                   0
##########       desc_FMS_num_aromatic_matched:                   0
##########       desc_FMS_num_positive_matched:                   0
##########       desc_FMS_num_negative_matched:                   0
##########           desc_FMS_num_ring_matched:                   0
########## Hungarian_Matching_Similarity_Score:           11.246445
##########       desc_HMS_num_unmtchd_hvy_atms:                  25
##########           desc_HMS_num_ref_hvy_atms:                  23
##########        desc_HMS_rmsd_mtchd_hvy_atms:           10.811662
##########               Property_Volume_Score:            0.000000
##########               desc_VOS_geometric_vo:            0.000000
##########                desc_VOS_hvy_atom_vo:            0.000000
##########            desc_VOS_pos_chrg_atm_vo:            0.000000
##########            desc_VOS_neg_chrg_atm_vo:            0.000000
##########         desc_VOS_hydrophobic_atm_vo:            0.000000
##########         desc_VOS_hydrophilic_atm_vo:            0.000000
##########           Internal_energy_repulsive:            9.377580

@<TRIPOS>MOLECULE
43
 26 26 1 0 0
SMALL
GASTEIGER


@<TRIPOS>ATOM
      1 C          23.7455    8.6870   38.3234 C.2     1  UNL1       -0.0667
      2 C          24.0157    9.4687   39.3699 C.2     1  UNL1       -0.0623
      3 C          24.4743    8.7859   36.9843 C.3     1  UNL1       -0.0253
      4 C          22.6694    7.6111   38.3631 C.3     1  UNL1       -0.0275
      5 C          23.3822    9.3702   40.5341 C.2     1  UNL1       -0.0628
      6 C          25.9217    9.2797   37.1828 C.3     1  UNL1       -0.0589
      7 C          24.4636    7.4664   36.1778 C.3     1  UNL1       -0.0589
      8 C          21.9301    7.5000   39.7161 C.3     1  UNL1       -0.0280
      9 C          22.4158    8.4848   40.7623 C.2     1  UNL1       -0.0723
     10 C          21.7113    8.3845   42.1002 C.3     1  UNL1       -0.0435
     11 H          24.7876   10.2282   39.2854 H       1  UNL1        0.0617
     12 H          23.9561    9.5215   36.3632 H       1  UNL1        0.0340
     13 H          23.1173    6.6415   38.1315 H       1  UNL1        0.0313
     14 H          21.9334    7.8092   37.5801 H       1  UNL1        0.0313
     15 H          23.6744   10.0477   41.3333 H       1  UNL1        0.0617
     16 H          26.4928    8.5752   37.7917 H       1  UNL1        0.0235
     17 H          25.9304   10.2512   37.6826 H       1  UNL1        0.0235
     18 H          26.4250    9.3914   36.2196 H       1  UNL1        0.0235
     19 H          25.0705    6.6970   36.6598 H       1  UNL1        0.0235
     20 H          24.8694    7.6314   35.1769 H       1  UNL1        0.0235
     21 H          23.4435    7.0903   36.0706 H       1  UNL1        0.0235
     22 H          22.0447    6.4821   40.0966 H       1  UNL1        0.0313
     23 H          20.8611    7.6522   39.5467 H       1  UNL1        0.0313
     24 H          22.1013    9.1130   42.8149 H       1  UNL1        0.0274
     25 H          21.8431    7.3893   42.5302 H       1  UNL1        0.0274
     26 H          20.6404    8.5671   41.9854 H       1  UNL1        0.0274
@<TRIPOS>BOND
     1     1     2    2
     2     1     3    1
     3     1     4    1
     4     2     5    1
     5     3     6    1
     6     3     7    1
     7     4     8    1
     8     5     9    2
     9     9    10    1
    10     8     9    1
    11     2    11    1
    12     3    12    1
    13     4    13    1
    14     4    14    1
    15     5    15    1
    16     6    16    1
    17     6    17    1
    18     6    18    1
    19     7    19    1
    20     7    20    1
    21     7    21    1
    22     8    22    1
    23     8    23    1
    24    10    24    1
    25    10    25    1
    26    10    26    1
@<TRIPOS>SUBSTRUCTURE
     1 UNL1        1 TEMP              0 ****  ****    0 ROOT


##########                                Name:                  44
##########                DOCK_Rotatable_Bonds:                   3
##########                         Heavy_Atoms:                  11
##########                    Molecular_Weight:              152.15
##########                       Formal_Charge:        -5.96046e-08
##########                     HBond_Acceptors:                   3
##########                        HBond_Donors:                   1
##########                    Descriptor_Score:           39.259850
##########          Footprint_Similarity_Score:           11.546334
##########                 desc_FPS_vdw_energy:          -21.165768
##########                  desc_FPS_es_energy:           -1.833168
##########              desc_FPS_vdw+es_energy:          -22.998936
##########                  desc_FPS_num_hbond:                   1
##########                    desc_FPS_vdw_fps:            9.206594
##########                     desc_FPS_es_fps:            2.339741
##########                     desc_FPS_hb_fps:            1.000000
##########              desc_FPS_vdw_fp_numres:                 219
##########               desc_FPS_es_fp_numres:                 219
##########               desc_FPS_hb_fp_numres:                 219
##########                 Pharmacophore_Score:           20.000000
##########              desc_FMS_num_match_tot:                   0
##########              desc_FMS_max_match_ref:                  10
##########              desc_FMS_max_match_mol:                   5
##########                 desc_FMS_match_rate:            4.000000
##########                desc_FMS_match_resid:            0.000000
##########    desc_FMS_num_hydrophobic_matched:                   0
##########          desc_FMS_num_donor_matched:                   0
##########       desc_FMS_num_acceptor_matched:                   0
##########       desc_FMS_num_aromatic_matched:                   0
##########       desc_FMS_num_positive_matched:                   0
##########       desc_FMS_num_negative_matched:                   0
##########           desc_FMS_num_ring_matched:                   0
########## Hungarian_Matching_Similarity_Score:            7.713517
##########       desc_HMS_num_unmtchd_hvy_atms:                  14
##########           desc_HMS_num_ref_hvy_atms:                  23
##########        desc_HMS_rmsd_mtchd_hvy_atms:            9.670038
##########               Property_Volume_Score:            0.000000
##########               desc_VOS_geometric_vo:            0.000000
##########                desc_VOS_hvy_atom_vo:            0.000000
##########            desc_VOS_pos_chrg_atm_vo:            0.000000
##########            desc_VOS_neg_chrg_atm_vo:            0.000000
##########         desc_VOS_hydrophobic_atm_vo:            0.000000
##########         desc_VOS_hydrophilic_atm_vo:            0.000000
##########           Internal_energy_repulsive:            1.900958

@<TRIPOS>MOLECULE
44
 19 19 1 0 0
SMALL
GASTEIGER


@<TRIPOS>ATOM
      1 O          24.0859   13.0470   40.0171 O.2     1  UNL1       -0.2957
      2 C          23.6365   12.0331   39.5214 C.2     1  UNL1        0.1503
      3 C          23.1060   10.8744   40.2969 C.ar    1  UNL1        0.0179
      4 C          22.7959    9.6733   39.6548 C.ar    1  UNL1       -0.0061
      5 C          22.9212   10.9933   41.6751 C.ar    1  UNL1       -0.0479
      6 C          22.3018    8.5908   40.3906 C.ar    1  UNL1        0.1619
      7 C          22.4265    9.9184   42.4106 C.ar    1  UNL1       -0.0159
      8 O          21.9838    7.3712   39.8105 O.3     1  UNL1       -0.4914
      9 C          22.1181    8.7226   41.7664 C.ar    1  UNL1        0.1585
     10 C          22.4149    6.9969   38.4808 C.3     1  UNL1        0.0790
     11 O          21.6348    7.6630   42.4692 O.3     1  UNL1       -0.5033
     12 H          23.6422   12.0216   38.4207 H       1  UNL1        0.1081
     13 H          22.9447    9.5924   38.5820 H       1  UNL1        0.0662
     14 H          23.1625   11.9250   42.1811 H       1  UNL1        0.0626
     15 H          22.2827   10.0128   43.4841 H       1  UNL1        0.0655
     16 H          22.0621    5.9851   38.2646 H       1  UNL1        0.0660
     17 H          23.5074    7.0188   38.4316 H       1  UNL1        0.0660
     18 H          21.9928    7.6936   37.7509 H       1  UNL1        0.0660
     19 H          21.3934    6.9873   41.8015 H       1  UNL1        0.2923
@<TRIPOS>BOND
     1     1     2    2
     2     2     3    1
     3     3     4   ar
     4     3     5   ar
     5     4     6   ar
     6     5     7   ar
     7     6     8    1
     8     6     9   ar
     9     8    10    1
    10     9    11    1
    11     7     9   ar
    12     2    12    1
    13     4    13    1
    14     5    14    1
    15     7    15    1
    16    10    16    1
    17    10    17    1
    18    10    18    1
    19    11    19    1
@<TRIPOS>SUBSTRUCTURE
     1 UNL1        1 TEMP              0 ****  ****    0 ROOT


##########                                Name:                  44
##########                DOCK_Rotatable_Bonds:                   3
##########                         Heavy_Atoms:                  11
##########                    Molecular_Weight:              152.15
##########                       Formal_Charge:        -5.96046e-08
##########                     HBond_Acceptors:                   3
##########                        HBond_Donors:                   1
##########                    Descriptor_Score:           39.735237
##########          Footprint_Similarity_Score:           11.692264
##########                 desc_FPS_vdw_energy:          -22.782036
##########                  desc_FPS_es_energy:            0.138536
##########              desc_FPS_vdw+es_energy:          -22.643499
##########                  desc_FPS_num_hbond:                   0
##########                    desc_FPS_vdw_fps:            9.584114
##########                     desc_FPS_es_fps:            2.108150
##########                     desc_FPS_hb_fps:            0.000000
##########              desc_FPS_vdw_fp_numres:                 219
##########               desc_FPS_es_fp_numres:                 219
##########               desc_FPS_hb_fp_numres:                 219
##########                 Pharmacophore_Score:           20.000000
##########              desc_FMS_num_match_tot:                   0
##########              desc_FMS_max_match_ref:                  10
##########              desc_FMS_max_match_mol:                   5
##########                 desc_FMS_match_rate:            4.000000
##########                desc_FMS_match_resid:            0.000000
##########    desc_FMS_num_hydrophobic_matched:                   0
##########          desc_FMS_num_donor_matched:                   0
##########       desc_FMS_num_acceptor_matched:                   0
##########       desc_FMS_num_aromatic_matched:                   0
##########       desc_FMS_num_positive_matched:                   0
##########       desc_FMS_num_negative_matched:                   0
##########           desc_FMS_num_ring_matched:                   0
########## Hungarian_Matching_Similarity_Score:            8.042974
##########       desc_HMS_num_unmtchd_hvy_atms:                  14
##########           desc_HMS_num_ref_hvy_atms:                  23
##########        desc_HMS_rmsd_mtchd_hvy_atms:            9.999496
##########               Property_Volume_Score:            0.000000
##########               desc_VOS_geometric_vo:            0.000000
##########                desc_VOS_hvy_atom_vo:            0.000000
##########            desc_VOS_pos_chrg_atm_vo:            0.000000
##########            desc_VOS_neg_chrg_atm_vo:            0.000000
##########         desc_VOS_hydrophobic_atm_vo:            0.000000
##########         desc_VOS_hydrophilic_atm_vo:            0.000000
##########           Internal_energy_repulsive:            1.853264

@<TRIPOS>MOLECULE
44
 19 19 1 0 0
SMALL
GASTEIGER


@<TRIPOS>ATOM
      1 O          21.3508    7.4592   42.4627 O.2     1  UNL1       -0.2957
      2 C          21.6125    8.6354   42.3093 C.2     1  UNL1        0.1503
      3 C          22.3808    9.1887   41.1565 C.ar    1  UNL1        0.0179
      4 C          22.4579    8.4852   39.9522 C.ar    1  UNL1       -0.0061
      5 C          23.0246   10.4203   41.2840 C.ar    1  UNL1       -0.0479
      6 C          23.1781    9.0133   38.8752 C.ar    1  UNL1        0.1619
      7 C          23.7453   10.9478   40.2147 C.ar    1  UNL1       -0.0159
      8 O          23.2839    8.3654   37.6529 O.3     1  UNL1       -0.4914
      9 C          23.8201   10.2429   39.0157 C.ar    1  UNL1        0.1585
     10 C          22.6322    7.1042   37.3726 C.3     1  UNL1        0.0790
     11 O          24.5188   10.7435   37.9615 O.3     1  UNL1       -0.5033
     12 H          21.2308    9.2956   43.1031 H       1  UNL1        0.1081
     13 H          21.9520    7.5281   39.8645 H       1  UNL1        0.0662
     14 H          22.9668   10.9737   42.2182 H       1  UNL1        0.0626
     15 H          24.2467   11.9072   40.3159 H       1  UNL1        0.0655
     16 H          22.8453    6.8160   36.3398 H       1  UNL1        0.0660
     17 H          21.5519    7.2146   37.5032 H       1  UNL1        0.0660
     18 H          23.0154    6.3369   38.0513 H       1  UNL1        0.0660
     19 H          24.4288   10.0825   37.2433 H       1  UNL1        0.2923
@<TRIPOS>BOND
     1     1     2    2
     2     2     3    1
     3     3     4   ar
     4     3     5   ar
     5     4     6   ar
     6     5     7   ar
     7     6     8    1
     8     6     9   ar
     9     8    10    1
    10     9    11    1
    11     7     9   ar
    12     2    12    1
    13     4    13    1
    14     5    14    1
    15     7    15    1
    16    10    16    1
    17    10    17    1
    18    10    18    1
    19    11    19    1
@<TRIPOS>SUBSTRUCTURE
     1 UNL1        1 TEMP              0 ****  ****    0 ROOT


##########                                Name:                  44
##########                DOCK_Rotatable_Bonds:                   3
##########                         Heavy_Atoms:                  11
##########                    Molecular_Weight:              152.15
##########                       Formal_Charge:        -5.96046e-08
##########                     HBond_Acceptors:                   3
##########                        HBond_Donors:                   1
##########                    Descriptor_Score:           39.634556
##########          Footprint_Similarity_Score:           11.673477
##########                 desc_FPS_vdw_energy:          -22.833323
##########                  desc_FPS_es_energy:            0.398675
##########              desc_FPS_vdw+es_energy:          -22.434647
##########                  desc_FPS_num_hbond:                   1
##########                    desc_FPS_vdw_fps:            9.574841
##########                     desc_FPS_es_fps:            2.098636
##########                     desc_FPS_hb_fps:            1.000000
##########              desc_FPS_vdw_fp_numres:                 219
##########               desc_FPS_es_fp_numres:                 219
##########               desc_FPS_hb_fp_numres:                 219
##########                 Pharmacophore_Score:           20.000000
##########              desc_FMS_num_match_tot:                   0
##########              desc_FMS_max_match_ref:                  10
##########              desc_FMS_max_match_mol:                   5
##########                 desc_FMS_match_rate:            4.000000
##########                desc_FMS_match_resid:            0.000000
##########    desc_FMS_num_hydrophobic_matched:                   0
##########          desc_FMS_num_donor_matched:                   0
##########       desc_FMS_num_acceptor_matched:                   0
##########       desc_FMS_num_aromatic_matched:                   0
##########       desc_FMS_num_positive_matched:                   0
##########       desc_FMS_num_negative_matched:                   0
##########           desc_FMS_num_ring_matched:                   0
########## Hungarian_Matching_Similarity_Score:            7.961080
##########       desc_HMS_num_unmtchd_hvy_atms:                  14
##########           desc_HMS_num_ref_hvy_atms:                  23
##########        desc_HMS_rmsd_mtchd_hvy_atms:            9.917602
##########               Property_Volume_Score:            0.000000
##########               desc_VOS_geometric_vo:            0.000000
##########                desc_VOS_hvy_atom_vo:            0.000000
##########            desc_VOS_pos_chrg_atm_vo:            0.000000
##########            desc_VOS_neg_chrg_atm_vo:            0.000000
##########         desc_VOS_hydrophobic_atm_vo:            0.000000
##########         desc_VOS_hydrophilic_atm_vo:            0.000000
##########           Internal_energy_repulsive:            1.882861

@<TRIPOS>MOLECULE
44
 19 19 1 0 0
SMALL
GASTEIGER


@<TRIPOS>ATOM
      1 O          21.2231    7.4885   42.5181 O.2     1  UNL1       -0.2957
      2 C          21.5415    8.6530   42.3834 C.2     1  UNL1        0.1503
      3 C          22.3126    9.1916   41.2256 C.ar    1  UNL1        0.0179
      4 C          22.3792    8.4807   40.0252 C.ar    1  UNL1       -0.0061
      5 C          22.9699   10.4170   41.3446 C.ar    1  UNL1       -0.0479
      6 C          23.1022    8.9950   38.9434 C.ar    1  UNL1        0.1619
      7 C          23.6933   10.9309   40.2706 C.ar    1  UNL1       -0.0159
      8 O          23.1979    8.3392   37.7245 O.3     1  UNL1       -0.4914
      9 C          23.7575   10.2186   39.0753 C.ar    1  UNL1        0.1585
     10 C          22.5344    7.0821   37.4538 C.3     1  UNL1        0.0790
     11 O          24.4588   10.7058   38.0166 O.3     1  UNL1       -0.5033
     12 H          21.2111    9.3141   43.1992 H       1  UNL1        0.1081
     13 H          21.8629    7.5285   39.9441 H       1  UNL1        0.0662
     14 H          22.9203   10.9763   42.2758 H       1  UNL1        0.0626
     15 H          24.2051   11.8854   40.3651 H       1  UNL1        0.0655
     16 H          22.7412    6.7862   36.4220 H       1  UNL1        0.0660
     17 H          21.4555    7.2027   37.5876 H       1  UNL1        0.0660
     18 H          22.9134    6.3155   38.1356 H       1  UNL1        0.0660
     19 H          24.7940   11.5826   38.2990 H       1  UNL1        0.2923
@<TRIPOS>BOND
     1     1     2    2
     2     2     3    1
     3     3     4   ar
     4     3     5   ar
     5     4     6   ar
     6     5     7   ar
     7     6     8    1
     8     6     9   ar
     9     8    10    1
    10     9    11    1
    11     7     9   ar
    12     2    12    1
    13     4    13    1
    14     5    14    1
    15     7    15    1
    16    10    16    1
    17    10    17    1
    18    10    18    1
    19    11    19    1
@<TRIPOS>SUBSTRUCTURE
     1 UNL1        1 TEMP              0 ****  ****    0 ROOT


##########                                Name:                  49
##########                DOCK_Rotatable_Bonds:                   5
##########                         Heavy_Atoms:                  12
##########                    Molecular_Weight:             168.149
##########                       Formal_Charge:        -0.000100017
##########                     HBond_Acceptors:                   4
##########                        HBond_Donors:                   3
##########                    Descriptor_Score:           40.964264
##########          Footprint_Similarity_Score:           12.259659
##########                 desc_FPS_vdw_energy:          -22.182501
##########                  desc_FPS_es_energy:           -3.759976
##########              desc_FPS_vdw+es_energy:          -25.942478
##########                  desc_FPS_num_hbond:                   2
##########                    desc_FPS_vdw_fps:            9.253106
##########                     desc_FPS_es_fps:            3.006553
##########                     desc_FPS_hb_fps:            1.414214
##########              desc_FPS_vdw_fp_numres:                 219
##########               desc_FPS_es_fp_numres:                 219
##########               desc_FPS_hb_fp_numres:                 219
##########                 Pharmacophore_Score:           20.000000
##########              desc_FMS_num_match_tot:                   0
##########              desc_FMS_max_match_ref:                  10
##########              desc_FMS_max_match_mol:                   9
##########                 desc_FMS_match_rate:            4.000000
##########                desc_FMS_match_resid:            0.000000
##########    desc_FMS_num_hydrophobic_matched:                   0
##########          desc_FMS_num_donor_matched:                   0
##########       desc_FMS_num_acceptor_matched:                   0
##########       desc_FMS_num_aromatic_matched:                   0
##########       desc_FMS_num_positive_matched:                   0
##########       desc_FMS_num_negative_matched:                   0
##########           desc_FMS_num_ring_matched:                   0
########## Hungarian_Matching_Similarity_Score:            8.704604
##########       desc_HMS_num_unmtchd_hvy_atms:                  15
##########           desc_HMS_num_ref_hvy_atms:                  23
##########        desc_HMS_rmsd_mtchd_hvy_atms:           10.443735
##########               Property_Volume_Score:            0.000000
##########               desc_VOS_geometric_vo:            0.000000
##########                desc_VOS_hvy_atom_vo:            0.000000
##########            desc_VOS_pos_chrg_atm_vo:            0.000000
##########            desc_VOS_neg_chrg_atm_vo:            0.000000
##########         desc_VOS_hydrophobic_atm_vo:            0.000000
##########         desc_VOS_hydrophilic_atm_vo:            0.000000
##########           Internal_energy_repulsive:            2.187770

@<TRIPOS>MOLECULE
49
 20 20 1 0 0
SMALL
GASTEIGER


@<TRIPOS>ATOM
      1 O          23.5700    8.7235   35.9222 O.2     1  UNL1       -0.2507
      2 C          23.7331    7.8392   36.7360 C.2     1  UNL1        0.3091
      3 O          24.8568    7.1710   36.8167 O.3     1  UNL1       -0.4804
      4 C          22.6230    7.3643   37.6575 C.3     1  UNL1        0.0700
      5 C          22.5800    8.0753   39.0053 C.ar    1  UNL1       -0.0331
      6 C          22.0376    7.4405   40.1289 C.ar    1  UNL1       -0.0128
      7 C          23.1321    9.3534   39.1382 C.ar    1  UNL1       -0.0544
      8 C          22.0504    8.0810   41.3688 C.ar    1  UNL1        0.1585
      9 C          23.1483    9.9901   40.3778 C.ar    1  UNL1       -0.0163
     10 O          21.5256    7.4798   42.4782 O.3     1  UNL1       -0.5033
     11 C          22.6123    9.3494   41.4924 C.ar    1  UNL1        0.1582
     12 O          22.6390    9.9393   42.7145 O.3     1  UNL1       -0.5033
     13 H          24.7381    6.4112   37.4105 H       1  UNL1        0.2951
     14 H          22.7292    6.2857   37.8026 H       1  UNL1        0.0426
     15 H          21.6640    7.5185   37.1551 H       1  UNL1        0.0426
     16 H          21.6153    6.4422   40.0382 H       1  UNL1        0.0658
     17 H          23.5683    9.8557   38.2775 H       1  UNL1        0.0622
     18 H          23.5878   10.9800   40.4769 H       1  UNL1        0.0655
     19 H          21.2019    6.5900   42.2600 H       1  UNL1        0.2923
     20 H          22.9427   10.8585   42.5583 H       1  UNL1        0.2923
@<TRIPOS>BOND
     1     1     2    2
     2     2     3    1
     3     2     4    1
     4     4     5    1
     5     5     6   ar
     6     5     7   ar
     7     6     8   ar
     8     7     9   ar
     9     8    10    1
    10     8    11   ar
    11    11    12    1
    12     9    11   ar
    13     3    13    1
    14     4    14    1
    15     4    15    1
    16     6    16    1
    17     7    17    1
    18     9    18    1
    19    10    19    1
    20    12    20    1
@<TRIPOS>SUBSTRUCTURE
     1 UNL1        1 TEMP              0 ****  ****    0 ROOT


##########                                Name:                  49
##########                DOCK_Rotatable_Bonds:                   5
##########                         Heavy_Atoms:                  12
##########                    Molecular_Weight:             168.149
##########                       Formal_Charge:        -0.000100017
##########                     HBond_Acceptors:                   4
##########                        HBond_Donors:                   3
##########                    Descriptor_Score:           40.977985
##########          Footprint_Similarity_Score:           12.205085
##########                 desc_FPS_vdw_energy:          -22.429272
##########                  desc_FPS_es_energy:           -3.257871
##########              desc_FPS_vdw+es_energy:          -25.687143
##########                  desc_FPS_num_hbond:                   2
##########                    desc_FPS_vdw_fps:            9.181766
##########                     desc_FPS_es_fps:            3.023319
##########                     desc_FPS_hb_fps:            1.414214
##########              desc_FPS_vdw_fp_numres:                 219
##########               desc_FPS_es_fp_numres:                 219
##########               desc_FPS_hb_fp_numres:                 219
##########                 Pharmacophore_Score:           20.000000
##########              desc_FMS_num_match_tot:                   0
##########              desc_FMS_max_match_ref:                  10
##########              desc_FMS_max_match_mol:                   9
##########                 desc_FMS_match_rate:            4.000000
##########                desc_FMS_match_resid:            0.000000
##########    desc_FMS_num_hydrophobic_matched:                   0
##########          desc_FMS_num_donor_matched:                   0
##########       desc_FMS_num_acceptor_matched:                   0
##########       desc_FMS_num_aromatic_matched:                   0
##########       desc_FMS_num_positive_matched:                   0
##########       desc_FMS_num_negative_matched:                   0
##########           desc_FMS_num_ring_matched:                   0
########## Hungarian_Matching_Similarity_Score:            8.772899
##########       desc_HMS_num_unmtchd_hvy_atms:                  15
##########           desc_HMS_num_ref_hvy_atms:                  23
##########        desc_HMS_rmsd_mtchd_hvy_atms:           10.512029
##########               Property_Volume_Score:            0.000000
##########               desc_VOS_geometric_vo:            0.000000
##########                desc_VOS_hvy_atom_vo:            0.000000
##########            desc_VOS_pos_chrg_atm_vo:            0.000000
##########            desc_VOS_neg_chrg_atm_vo:            0.000000
##########         desc_VOS_hydrophobic_atm_vo:            0.000000
##########         desc_VOS_hydrophilic_atm_vo:            0.000000
##########           Internal_energy_repulsive:            2.194170

@<TRIPOS>MOLECULE
49
 20 20 1 0 0
SMALL
GASTEIGER


@<TRIPOS>ATOM
      1 O          24.9324    7.4168   37.0917 O.2     1  UNL1       -0.2507
      2 C          23.8456    7.9352   36.9461 C.2     1  UNL1        0.3091
      3 O          23.6612    8.9380   36.1239 O.3     1  UNL1       -0.4804
      4 C          22.6351    7.5370   37.7727 C.3     1  UNL1        0.0700
      5 C          22.5671    8.1997   39.1439 C.ar    1  UNL1       -0.0331
      6 C          22.0222    7.5180   40.2385 C.ar    1  UNL1       -0.0128
      7 C          23.0986    9.4801   39.3276 C.ar    1  UNL1       -0.0544
      8 C          22.0121    8.1147   41.5001 C.ar    1  UNL1        0.1585
      9 C          23.0920   10.0732   40.5887 C.ar    1  UNL1       -0.0163
     10 O          21.4845    7.4674   42.5818 O.3     1  UNL1       -0.5033
     11 C          22.5537    9.3860   41.6742 C.ar    1  UNL1        0.1582
     12 O          22.5585    9.9330   42.9164 O.3     1  UNL1       -0.5033
     13 H          22.7576    9.2790   36.2289 H       1  UNL1        0.2951
     14 H          22.6290    6.4487   37.8782 H       1  UNL1        0.0426
     15 H          21.7316    7.8016   37.2162 H       1  UNL1        0.0426
     16 H          21.6158    6.5175   40.1082 H       1  UNL1        0.0658
     17 H          23.5365   10.0187   38.4899 H       1  UNL1        0.0622
     18 H          23.5156   11.0653   40.7273 H       1  UNL1        0.0655
     19 H          21.2058    6.5695   42.3363 H       1  UNL1        0.2923
     20 H          22.8789   10.8524   42.7997 H       1  UNL1        0.2923
@<TRIPOS>BOND
     1     1     2    2
     2     2     3    1
     3     2     4    1
     4     4     5    1
     5     5     6   ar
     6     5     7   ar
     7     6     8   ar
     8     7     9   ar
     9     8    10    1
    10     8    11   ar
    11    11    12    1
    12     9    11   ar
    13     3    13    1
    14     4    14    1
    15     4    15    1
    16     6    16    1
    17     7    17    1
    18     9    18    1
    19    10    19    1
    20    12    20    1
@<TRIPOS>SUBSTRUCTURE
     1 UNL1        1 TEMP              0 ****  ****    0 ROOT


##########                                Name:                  49
##########                DOCK_Rotatable_Bonds:                   5
##########                         Heavy_Atoms:                  12
##########                    Molecular_Weight:             168.149
##########                       Formal_Charge:        -0.000100017
##########                     HBond_Acceptors:                   4
##########                        HBond_Donors:                   3
##########                    Descriptor_Score:           40.731110
##########          Footprint_Similarity_Score:           12.183261
##########                 desc_FPS_vdw_energy:          -23.453556
##########                  desc_FPS_es_energy:           -2.531276
##########              desc_FPS_vdw+es_energy:          -25.984833
##########                  desc_FPS_num_hbond:                   1
##########                    desc_FPS_vdw_fps:            9.441541
##########                     desc_FPS_es_fps:            2.741720
##########                     desc_FPS_hb_fps:            1.000000
##########              desc_FPS_vdw_fp_numres:                 219
##########               desc_FPS_es_fp_numres:                 219
##########               desc_FPS_hb_fp_numres:                 219
##########                 Pharmacophore_Score:           20.000000
##########              desc_FMS_num_match_tot:                   0
##########              desc_FMS_max_match_ref:                  10
##########              desc_FMS_max_match_mol:                   9
##########                 desc_FMS_match_rate:            4.000000
##########                desc_FMS_match_resid:            0.000000
##########    desc_FMS_num_hydrophobic_matched:                   0
##########          desc_FMS_num_donor_matched:                   0
##########       desc_FMS_num_acceptor_matched:                   0
##########       desc_FMS_num_aromatic_matched:                   0
##########       desc_FMS_num_positive_matched:                   0
##########       desc_FMS_num_negative_matched:                   0
##########           desc_FMS_num_ring_matched:                   0
########## Hungarian_Matching_Similarity_Score:            8.547848
##########       desc_HMS_num_unmtchd_hvy_atms:                  15
##########           desc_HMS_num_ref_hvy_atms:                  23
##########        desc_HMS_rmsd_mtchd_hvy_atms:           10.286978
##########               Property_Volume_Score:            0.000000
##########               desc_VOS_geometric_vo:            0.000000
##########                desc_VOS_hvy_atom_vo:            0.000000
##########            desc_VOS_pos_chrg_atm_vo:            0.000000
##########            desc_VOS_neg_chrg_atm_vo:            0.000000
##########         desc_VOS_hydrophobic_atm_vo:            0.000000
##########         desc_VOS_hydrophilic_atm_vo:            0.000000
##########           Internal_energy_repulsive:            1.792178

@<TRIPOS>MOLECULE
49
 20 20 1 0 0
SMALL
GASTEIGER


@<TRIPOS>ATOM
      1 O          22.3007    8.6977   36.2922 O.2     1  UNL1       -0.2507
      2 C          23.0955    7.8518   36.6441 C.2     1  UNL1        0.3091
      3 O          24.1013    7.4892   35.8873 O.3     1  UNL1       -0.4804
      4 C          22.9377    7.0728   37.9384 C.3     1  UNL1        0.0700
      5 C          22.8414    7.9434   39.1861 C.ar    1  UNL1       -0.0331
      6 C          22.1287    7.5042   40.3082 C.ar    1  UNL1       -0.0128
      7 C          23.5115    9.1699   39.2349 C.ar    1  UNL1       -0.0544
      8 C          22.0905    8.2866   41.4632 C.ar    1  UNL1        0.1585
      9 C          23.4763    9.9483   40.3904 C.ar    1  UNL1       -0.0163
     10 O          21.4001    7.8773   42.5693 O.3     1  UNL1       -0.5033
     11 C          22.7701    9.5016   41.5049 C.ar    1  UNL1        0.1582
     12 O          22.7419   10.2305   42.6495 O.3     1  UNL1       -0.5033
     13 H          24.6423    6.8361   36.3614 H       1  UNL1        0.2951
     14 H          23.7746    6.3749   38.0283 H       1  UNL1        0.0426
     15 H          22.0309    6.4653   37.8704 H       1  UNL1        0.0426
     16 H          21.6129    6.5468   40.2839 H       1  UNL1        0.0658
     17 H          24.0796    9.5202   38.3759 H       1  UNL1        0.0622
     18 H          24.0074   10.8967   40.4257 H       1  UNL1        0.0655
     19 H          21.1030    6.9584   42.4621 H       1  UNL1        0.2923
     20 H          23.2919   11.0228   42.4725 H       1  UNL1        0.2923
@<TRIPOS>BOND
     1     1     2    2
     2     2     3    1
     3     2     4    1
     4     4     5    1
     5     5     6   ar
     6     5     7   ar
     7     6     8   ar
     8     7     9   ar
     9     8    10    1
    10     8    11   ar
    11    11    12    1
    12     9    11   ar
    13     3    13    1
    14     4    14    1
    15     4    15    1
    16     6    16    1
    17     7    17    1
    18     9    18    1
    19    10    19    1
    20    12    20    1
@<TRIPOS>SUBSTRUCTURE
     1 UNL1        1 TEMP              0 ****  ****    0 ROOT


##########                                Name:                  50
##########                DOCK_Rotatable_Bonds:                   5
##########                         Heavy_Atoms:                  12
##########                    Molecular_Weight:             166.177
##########                       Formal_Charge:         5.96046e-08
##########                     HBond_Acceptors:                   3
##########                        HBond_Donors:                   2
##########                    Descriptor_Score:           41.960907
##########          Footprint_Similarity_Score:           12.952951
##########                 desc_FPS_vdw_energy:          -21.593794
##########                  desc_FPS_es_energy:           -4.114549
##########              desc_FPS_vdw+es_energy:          -25.708344
##########                  desc_FPS_num_hbond:                   1
##########                    desc_FPS_vdw_fps:            9.556028
##########                     desc_FPS_es_fps:            3.396924
##########                     desc_FPS_hb_fps:            1.000000
##########              desc_FPS_vdw_fp_numres:                 219
##########               desc_FPS_es_fp_numres:                 219
##########               desc_FPS_hb_fp_numres:                 219
##########                 Pharmacophore_Score:           20.000000
##########              desc_FMS_num_match_tot:                   0
##########              desc_FMS_max_match_ref:                  10
##########              desc_FMS_max_match_mol:                   8
##########                 desc_FMS_match_rate:            4.000000
##########                desc_FMS_match_resid:            0.000000
##########    desc_FMS_num_hydrophobic_matched:                   0
##########          desc_FMS_num_donor_matched:                   0
##########       desc_FMS_num_acceptor_matched:                   0
##########       desc_FMS_num_aromatic_matched:                   0
##########       desc_FMS_num_positive_matched:                   0
##########       desc_FMS_num_negative_matched:                   0
##########           desc_FMS_num_ring_matched:                   0
########## Hungarian_Matching_Similarity_Score:            9.007958
##########       desc_HMS_num_unmtchd_hvy_atms:                  15
##########           desc_HMS_num_ref_hvy_atms:                  23
##########        desc_HMS_rmsd_mtchd_hvy_atms:           10.747088
##########               Property_Volume_Score:            0.000000
##########               desc_VOS_geometric_vo:            0.000000
##########                desc_VOS_hvy_atom_vo:            0.000000
##########            desc_VOS_pos_chrg_atm_vo:            0.000000
##########            desc_VOS_neg_chrg_atm_vo:            0.000000
##########         desc_VOS_hydrophobic_atm_vo:            0.000000
##########         desc_VOS_hydrophilic_atm_vo:            0.000000
##########           Internal_energy_repulsive:            2.230668

@<TRIPOS>MOLECULE
50
 22 22 1 0 0
SMALL
GASTEIGER


@<TRIPOS>ATOM
      1 O          25.6834    8.6968   37.2634 O.2     1  UNL1       -0.2510
      2 C          25.3206    7.5621   37.0299 C.2     1  UNL1        0.3050
      3 O          26.1209    6.6766   36.4937 O.3     1  UNL1       -0.4806
      4 C          23.9309    7.0270   37.3364 C.3     1  UNL1        0.0487
      5 C          22.8924    8.1562   37.5391 C.3     1  UNL1       -0.0176
      6 C          22.6847    8.5260   39.0024 C.ar    1  UNL1       -0.0466
      7 C          22.0164    7.6515   39.8638 C.ar    1  UNL1       -0.0551
      8 C          23.1865    9.7289   39.5068 C.ar    1  UNL1       -0.0551
      9 C          21.8433    7.9787   41.2077 C.ar    1  UNL1       -0.0199
     10 C          23.0187   10.0542   40.8521 C.ar    1  UNL1       -0.0199
     11 C          22.3448    9.1810   41.7042 C.ar    1  UNL1        0.1169
     12 O          22.1852    9.5052   43.0186 O.3     1  UNL1       -0.5068
     13 H          25.6360    5.8418   36.3795 H       1  UNL1        0.2951
     14 H          23.9809    6.4105   38.2371 H       1  UNL1        0.0381
     15 H          23.6088    6.3793   36.5173 H       1  UNL1        0.0381
     16 H          21.9403    7.8451   37.1005 H       1  UNL1        0.0318
     17 H          23.2144    9.0453   36.9913 H       1  UNL1        0.0318
     18 H          21.6305    6.7054   39.4913 H       1  UNL1        0.0621
     19 H          23.7211   10.4170   38.8560 H       1  UNL1        0.0621
     20 H          21.3190    7.2899   41.8662 H       1  UNL1        0.0654
     21 H          23.4183   10.9898   41.2371 H       1  UNL1        0.0654
     22 H          22.2312   10.4715   43.1370 H       1  UNL1        0.2921
@<TRIPOS>BOND
     1     1     2    2
     2     2     3    1
     3     2     4    1
     4     4     5    1
     5     5     6    1
     6     6     7   ar
     7     6     8   ar
     8     7     9   ar
     9     8    10   ar
    10     9    11   ar
    11    11    12    1
    12    10    11   ar
    13     3    13    1
    14     4    14    1
    15     4    15    1
    16     5    16    1
    17     5    17    1
    18     7    18    1
    19     8    19    1
    20     9    20    1
    21    10    21    1
    22    12    22    1
@<TRIPOS>SUBSTRUCTURE
     1 UNL1        1 TEMP              0 ****  ****    0 ROOT


##########                                Name:                  50
##########                DOCK_Rotatable_Bonds:                   5
##########                         Heavy_Atoms:                  12
##########                    Molecular_Weight:             166.177
##########                       Formal_Charge:         5.96046e-08
##########                     HBond_Acceptors:                   3
##########                        HBond_Donors:                   2
##########                    Descriptor_Score:           40.423912
##########          Footprint_Similarity_Score:           11.792768
##########                 desc_FPS_vdw_energy:          -23.757109
##########                  desc_FPS_es_energy:           -2.111584
##########              desc_FPS_vdw+es_energy:          -25.868692
##########                  desc_FPS_num_hbond:                   2
##########                    desc_FPS_vdw_fps:            9.462606
##########                     desc_FPS_es_fps:            2.330161
##########                     desc_FPS_hb_fps:            1.414214
##########              desc_FPS_vdw_fp_numres:                 219
##########               desc_FPS_es_fp_numres:                 219
##########               desc_FPS_hb_fp_numres:                 219
##########                 Pharmacophore_Score:           20.000000
##########              desc_FMS_num_match_tot:                   0
##########              desc_FMS_max_match_ref:                  10
##########              desc_FMS_max_match_mol:                   8
##########                 desc_FMS_match_rate:            4.000000
##########                desc_FMS_match_resid:            0.000000
##########    desc_FMS_num_hydrophobic_matched:                   0
##########          desc_FMS_num_donor_matched:                   0
##########       desc_FMS_num_acceptor_matched:                   0
##########       desc_FMS_num_aromatic_matched:                   0
##########       desc_FMS_num_positive_matched:                   0
##########       desc_FMS_num_negative_matched:                   0
##########           desc_FMS_num_ring_matched:                   0
########## Hungarian_Matching_Similarity_Score:            8.631146
##########       desc_HMS_num_unmtchd_hvy_atms:                  15
##########           desc_HMS_num_ref_hvy_atms:                  23
##########        desc_HMS_rmsd_mtchd_hvy_atms:           10.370277
##########               Property_Volume_Score:            0.000000
##########               desc_VOS_geometric_vo:            0.000000
##########                desc_VOS_hvy_atom_vo:            0.000000
##########            desc_VOS_pos_chrg_atm_vo:            0.000000
##########            desc_VOS_neg_chrg_atm_vo:            0.000000
##########         desc_VOS_hydrophobic_atm_vo:            0.000000
##########         desc_VOS_hydrophilic_atm_vo:            0.000000
##########           Internal_energy_repulsive:            3.132966

@<TRIPOS>MOLECULE
50
 22 22 1 0 0
SMALL
GASTEIGER


@<TRIPOS>ATOM
      1 O          22.3637    9.7335   42.7808 O.2     1  UNL1       -0.2510
      2 C          21.8409    8.7729   42.2539 C.2     1  UNL1        0.3050
      3 O          21.1674    7.8875   42.9426 O.3     1  UNL1       -0.4806
      4 C          21.8832    8.4863   40.7613 C.3     1  UNL1        0.0487
      5 C          23.1325    9.0906   40.0769 C.3     1  UNL1       -0.0176
      6 C          23.1516    8.8808   38.5679 C.ar    1  UNL1       -0.0466
      7 C          23.6523    9.8752   37.7229 C.ar    1  UNL1       -0.0551
      8 C          22.6977    7.6806   38.0142 C.ar    1  UNL1       -0.0551
      9 C          23.6896    9.6771   36.3437 C.ar    1  UNL1       -0.0199
     10 C          22.7400    7.4796   36.6352 C.ar    1  UNL1       -0.0199
     11 C          23.2337    8.4782   35.7975 C.ar    1  UNL1        0.1169
     12 O          23.2729    8.2744   34.4502 O.3     1  UNL1       -0.5068
     13 H          20.8312    7.2059   42.3365 H       1  UNL1        0.2951
     14 H          20.9805    8.8923   40.2984 H       1  UNL1        0.0381
     15 H          21.8700    7.4049   40.6047 H       1  UNL1        0.0381
     16 H          24.0286    8.6480   40.5203 H       1  UNL1        0.0318
     17 H          23.1757   10.1624   40.2860 H       1  UNL1        0.0318
     18 H          24.0214   10.8104   38.1376 H       1  UNL1        0.0621
     19 H          22.3167    6.8891   38.6555 H       1  UNL1        0.0621
     20 H          24.0794   10.4605   35.6977 H       1  UNL1        0.0654
     21 H          22.3905    6.5396   36.2138 H       1  UNL1        0.0654
     22 H          23.5262    9.0958   33.9907 H       1  UNL1        0.2921
@<TRIPOS>BOND
     1     1     2    2
     2     2     3    1
     3     2     4    1
     4     4     5    1
     5     5     6    1
     6     6     7   ar
     7     6     8   ar
     8     7     9   ar
     9     8    10   ar
    10     9    11   ar
    11    11    12    1
    12    10    11   ar
    13     3    13    1
    14     4    14    1
    15     4    15    1
    16     5    16    1
    17     5    17    1
    18     7    18    1
    19     8    19    1
    20     9    20    1
    21    10    21    1
    22    12    22    1
@<TRIPOS>SUBSTRUCTURE
     1 UNL1        1 TEMP              0 ****  ****    0 ROOT


##########                                Name:                  50
##########                DOCK_Rotatable_Bonds:                   5
##########                         Heavy_Atoms:                  12
##########                    Molecular_Weight:             166.177
##########                       Formal_Charge:         5.96046e-08
##########                     HBond_Acceptors:                   3
##########                        HBond_Donors:                   2
##########                    Descriptor_Score:           40.587334
##########          Footprint_Similarity_Score:           11.705721
##########                 desc_FPS_vdw_energy:          -21.444534
##########                  desc_FPS_es_energy:           -3.648685
##########              desc_FPS_vdw+es_energy:          -25.093220
##########                  desc_FPS_num_hbond:                   3
##########                    desc_FPS_vdw_fps:            8.930866
##########                     desc_FPS_es_fps:            2.774855
##########                     desc_FPS_hb_fps:            1.732051
##########              desc_FPS_vdw_fp_numres:                 219
##########               desc_FPS_es_fp_numres:                 219
##########               desc_FPS_hb_fp_numres:                 219
##########                 Pharmacophore_Score:           20.000000
##########              desc_FMS_num_match_tot:                   0
##########              desc_FMS_max_match_ref:                  10
##########              desc_FMS_max_match_mol:                   8
##########                 desc_FMS_match_rate:            4.000000
##########                desc_FMS_match_resid:            0.000000
##########    desc_FMS_num_hydrophobic_matched:                   0
##########          desc_FMS_num_donor_matched:                   0
##########       desc_FMS_num_acceptor_matched:                   0
##########       desc_FMS_num_aromatic_matched:                   0
##########       desc_FMS_num_positive_matched:                   0
##########       desc_FMS_num_negative_matched:                   0
##########           desc_FMS_num_ring_matched:                   0
########## Hungarian_Matching_Similarity_Score:            8.881613
##########       desc_HMS_num_unmtchd_hvy_atms:                  15
##########           desc_HMS_num_ref_hvy_atms:                  23
##########        desc_HMS_rmsd_mtchd_hvy_atms:           10.620743
##########               Property_Volume_Score:            0.000000
##########               desc_VOS_geometric_vo:            0.000000
##########                desc_VOS_hvy_atom_vo:            0.000000
##########            desc_VOS_pos_chrg_atm_vo:            0.000000
##########            desc_VOS_neg_chrg_atm_vo:            0.000000
##########         desc_VOS_hydrophobic_atm_vo:            0.000000
##########         desc_VOS_hydrophilic_atm_vo:            0.000000
##########           Internal_energy_repulsive:            1.554115

@<TRIPOS>MOLECULE
50
 22 22 1 0 0
SMALL
GASTEIGER


@<TRIPOS>ATOM
      1 O          27.0306   11.2014   37.0877 O.2     1  UNL1       -0.2510
      2 C          26.3782   11.4669   38.0766 C.2     1  UNL1        0.3050
      3 O          26.2768   12.6899   38.5305 O.3     1  UNL1       -0.4806
      4 C          25.5988   10.4446   38.8883 C.3     1  UNL1        0.0487
      5 C          24.1040   10.8178   39.0332 C.3     1  UNL1       -0.0176
      6 C          23.3492    9.9116   39.9979 C.ar    1  UNL1       -0.0466
      7 C          23.1962   10.2782   41.3379 C.ar    1  UNL1       -0.0551
      8 C          22.7753    8.7196   39.5473 C.ar    1  UNL1       -0.0551
      9 C          22.4884    9.4606   42.2174 C.ar    1  UNL1       -0.0199
     10 C          22.0625    7.9041   40.4252 C.ar    1  UNL1       -0.0199
     11 C          21.9198    8.2719   41.7620 C.ar    1  UNL1        0.1169
     12 O          21.2208    7.4701   42.6145 O.3     1  UNL1       -0.5068
     13 H          26.5425   13.3092   37.8298 H       1  UNL1        0.2951
     14 H          26.0523   10.3608   39.8790 H       1  UNL1        0.0381
     15 H          25.6846    9.4667   38.4083 H       1  UNL1        0.0381
     16 H          23.6319   10.7791   38.0478 H       1  UNL1        0.0318
     17 H          24.0219   11.8509   39.3800 H       1  UNL1        0.0318
     18 H          23.6253   11.2086   41.7028 H       1  UNL1        0.0621
     19 H          22.8716    8.4230   38.5054 H       1  UNL1        0.0621
     20 H          22.3793    9.7569   43.2582 H       1  UNL1        0.0654
     21 H          21.6139    6.9814   40.0640 H       1  UNL1        0.0654
     22 H          21.2312    6.5485   42.2976 H       1  UNL1        0.2921
@<TRIPOS>BOND
     1     1     2    2
     2     2     3    1
     3     2     4    1
     4     4     5    1
     5     5     6    1
     6     6     7   ar
     7     6     8   ar
     8     7     9   ar
     9     8    10   ar
    10     9    11   ar
    11    11    12    1
    12    10    11   ar
    13     3    13    1
    14     4    14    1
    15     4    15    1
    16     5    16    1
    17     5    17    1
    18     7    18    1
    19     8    19    1
    20     9    20    1
    21    10    21    1
    22    12    22    1
@<TRIPOS>SUBSTRUCTURE
     1 UNL1        1 TEMP              0 ****  ****    0 ROOT


##########                                Name:                  51
##########                DOCK_Rotatable_Bonds:                   4
##########                         Heavy_Atoms:                  11
##########                    Molecular_Weight:              152.15
##########                       Formal_Charge:        -0.000100084
##########                     HBond_Acceptors:                   3
##########                        HBond_Donors:                   2
##########                    Descriptor_Score:           40.126656
##########          Footprint_Similarity_Score:           12.157392
##########                 desc_FPS_vdw_energy:          -20.344254
##########                  desc_FPS_es_energy:           -4.305031
##########              desc_FPS_vdw+es_energy:          -24.649284
##########                  desc_FPS_num_hbond:                   2
##########                    desc_FPS_vdw_fps:            9.036518
##########                     desc_FPS_es_fps:            3.120874
##########                     desc_FPS_hb_fps:            1.414214
##########              desc_FPS_vdw_fp_numres:                 219
##########               desc_FPS_es_fp_numres:                 219
##########               desc_FPS_hb_fp_numres:                 219
##########                 Pharmacophore_Score:           20.000000
##########              desc_FMS_num_match_tot:                   0
##########              desc_FMS_max_match_ref:                  10
##########              desc_FMS_max_match_mol:                   7
##########                 desc_FMS_match_rate:            4.000000
##########                desc_FMS_match_resid:            0.000000
##########    desc_FMS_num_hydrophobic_matched:                   0
##########          desc_FMS_num_donor_matched:                   0
##########       desc_FMS_num_acceptor_matched:                   0
##########       desc_FMS_num_aromatic_matched:                   0
##########       desc_FMS_num_positive_matched:                   0
##########       desc_FMS_num_negative_matched:                   0
##########           desc_FMS_num_ring_matched:                   0
########## Hungarian_Matching_Similarity_Score:            7.969265
##########       desc_HMS_num_unmtchd_hvy_atms:                  14
##########           desc_HMS_num_ref_hvy_atms:                  23
##########        desc_HMS_rmsd_mtchd_hvy_atms:            9.925787
##########               Property_Volume_Score:            0.000000
##########               desc_VOS_geometric_vo:            0.000000
##########                desc_VOS_hvy_atom_vo:            0.000000
##########            desc_VOS_pos_chrg_atm_vo:            0.000000
##########            desc_VOS_neg_chrg_atm_vo:            0.000000
##########         desc_VOS_hydrophobic_atm_vo:            0.000000
##########         desc_VOS_hydrophilic_atm_vo:            0.000000
##########           Internal_energy_repulsive:            1.758351

@<TRIPOS>MOLECULE
51
 19 19 1 0 0
SMALL
GASTEIGER


@<TRIPOS>ATOM
      1 O          22.2824    6.7101   37.0928 O.2     1  UNL1       -0.2507
      2 C          23.1989    7.2718   37.6541 C.2     1  UNL1        0.3091
      3 O          24.3331    6.6683   37.9076 O.3     1  UNL1       -0.4804
      4 C          23.1596    8.7483   38.0108 C.3     1  UNL1        0.0700
      5 C          22.8969    9.0249   39.4872 C.ar    1  UNL1       -0.0333
      6 C          22.1857    8.1075   40.2663 C.ar    1  UNL1       -0.0165
      7 C          23.3411   10.2166   40.0668 C.ar    1  UNL1       -0.0578
      8 C          21.9359    8.3738   41.6126 C.ar    1  UNL1        0.1171
      9 C          23.0859   10.4838   41.4108 C.ar    1  UNL1       -0.0580
     10 O          21.2516    7.4776   42.3763 O.3     1  UNL1       -0.5068
     11 C          22.3853    9.5621   42.1840 C.ar    1  UNL1       -0.0202
     12 H          24.2815    5.7547   37.5766 H       1  UNL1        0.2951
     13 H          22.3743    9.2298   37.4213 H       1  UNL1        0.0426
     14 H          24.1057    9.2019   37.7061 H       1  UNL1        0.0426
     15 H          21.8266    7.1813   39.8216 H       1  UNL1        0.0657
     16 H          23.8839   10.9482   39.4722 H       1  UNL1        0.0620
     17 H          23.4312   11.4139   41.8557 H       1  UNL1        0.0619
     18 H          21.2043    6.6181   41.9216 H       1  UNL1        0.2921
     19 H          22.1877    9.7724   43.2332 H       1  UNL1        0.0654
@<TRIPOS>BOND
     1     1     2    2
     2     2     3    1
     3     2     4    1
     4     4     5    1
     5     5     6   ar
     6     5     7   ar
     7     6     8   ar
     8     7     9   ar
     9     8    10    1
    10     8    11   ar
    11     9    11   ar
    12     3    12    1
    13     4    13    1
    14     4    14    1
    15     6    15    1
    16     7    16    1
    17     9    17    1
    18    10    18    1
    19    11    19    1
@<TRIPOS>SUBSTRUCTURE
     1 UNL1        1 TEMP              0 ****  ****    0 ROOT


##########                                Name:                  51
##########                DOCK_Rotatable_Bonds:                   4
##########                         Heavy_Atoms:                  11
##########                    Molecular_Weight:              152.15
##########                       Formal_Charge:        -0.000100084
##########                     HBond_Acceptors:                   3
##########                        HBond_Donors:                   2
##########                    Descriptor_Score:           40.245003
##########          Footprint_Similarity_Score:           11.845191
##########                 desc_FPS_vdw_energy:          -20.456892
##########                  desc_FPS_es_energy:           -3.273379
##########              desc_FPS_vdw+es_energy:          -23.730270
##########                  desc_FPS_num_hbond:                   2
##########                    desc_FPS_vdw_fps:            8.957596
##########                     desc_FPS_es_fps:            2.887595
##########                     desc_FPS_hb_fps:            1.414214
##########              desc_FPS_vdw_fp_numres:                 219
##########               desc_FPS_es_fp_numres:                 219
##########               desc_FPS_hb_fp_numres:                 219
##########                 Pharmacophore_Score:           20.000000
##########              desc_FMS_num_match_tot:                   0
##########              desc_FMS_max_match_ref:                  10
##########              desc_FMS_max_match_mol:                   7
##########                 desc_FMS_match_rate:            4.000000
##########                desc_FMS_match_resid:            0.000000
##########    desc_FMS_num_hydrophobic_matched:                   0
##########          desc_FMS_num_donor_matched:                   0
##########       desc_FMS_num_acceptor_matched:                   0
##########       desc_FMS_num_aromatic_matched:                   0
##########       desc_FMS_num_positive_matched:                   0
##########       desc_FMS_num_negative_matched:                   0
##########           desc_FMS_num_ring_matched:                   0
########## Hungarian_Matching_Similarity_Score:            8.399813
##########       desc_HMS_num_unmtchd_hvy_atms:                  14
##########           desc_HMS_num_ref_hvy_atms:                  23
##########        desc_HMS_rmsd_mtchd_hvy_atms:           10.356335
##########               Property_Volume_Score:            0.000000
##########               desc_VOS_geometric_vo:            0.000000
##########                desc_VOS_hvy_atom_vo:            0.000000
##########            desc_VOS_pos_chrg_atm_vo:            0.000000
##########            desc_VOS_neg_chrg_atm_vo:            0.000000
##########         desc_VOS_hydrophobic_atm_vo:            0.000000
##########         desc_VOS_hydrophilic_atm_vo:            0.000000
##########           Internal_energy_repulsive:            1.597425

@<TRIPOS>MOLECULE
51
 19 19 1 0 0
SMALL
GASTEIGER


@<TRIPOS>ATOM
      1 O          23.7926    8.6207   36.0995 O.2     1  UNL1       -0.2507
      2 C          23.7833    7.7548   36.9484 C.2     1  UNL1        0.3091
      3 O          24.8645    7.0939   37.2788 O.3     1  UNL1       -0.4804
      4 C          22.5529    7.4371   37.7813 C.3     1  UNL1        0.0700
      5 C          22.5224    8.1343   39.1371 C.ar    1  UNL1       -0.0333
      6 C          22.0082    7.4806   40.2609 C.ar    1  UNL1       -0.0165
      7 C          22.9824    9.4483   39.2600 C.ar    1  UNL1       -0.0578
      8 C          21.9694    8.1297   41.4949 C.ar    1  UNL1        0.1171
      9 C          22.9379   10.0976   40.4925 C.ar    1  UNL1       -0.0580
     10 O          21.4778    7.4920   42.5932 O.3     1  UNL1       -0.5068
     11 C          22.4334    9.4382   41.6100 C.ar    1  UNL1       -0.0202
     12 H          24.6142    6.3583   37.8645 H       1  UNL1        0.2951
     13 H          22.5105    6.3565   37.9445 H       1  UNL1        0.0426
     14 H          21.6659    7.7036   37.2018 H       1  UNL1        0.0426
     15 H          21.6380    6.4609   40.1733 H       1  UNL1        0.0657
     16 H          23.3729    9.9774   38.3933 H       1  UNL1        0.0620
     17 H          23.2943   11.1210   40.5816 H       1  UNL1        0.0619
     18 H          21.2349    6.5766   42.3676 H       1  UNL1        0.2921
     19 H          22.4001    9.9467   42.5715 H       1  UNL1        0.0654
@<TRIPOS>BOND
     1     1     2    2
     2     2     3    1
     3     2     4    1
     4     4     5    1
     5     5     6   ar
     6     5     7   ar
     7     6     8   ar
     8     7     9   ar
     9     8    10    1
    10     8    11   ar
    11     9    11   ar
    12     3    12    1
    13     4    13    1
    14     4    14    1
    15     6    15    1
    16     7    16    1
    17     9    17    1
    18    10    18    1
    19    11    19    1
@<TRIPOS>SUBSTRUCTURE
     1 UNL1        1 TEMP              0 ****  ****    0 ROOT


##########                                Name:                  51
##########                DOCK_Rotatable_Bonds:                   4
##########                         Heavy_Atoms:                  11
##########                    Molecular_Weight:              152.15
##########                       Formal_Charge:        -0.000100084
##########                     HBond_Acceptors:                   3
##########                        HBond_Donors:                   2
##########                    Descriptor_Score:           40.234589
##########          Footprint_Similarity_Score:           11.888832
##########                 desc_FPS_vdw_energy:          -20.218678
##########                  desc_FPS_es_energy:           -3.151511
##########              desc_FPS_vdw+es_energy:          -23.370188
##########                  desc_FPS_num_hbond:                   2
##########                    desc_FPS_vdw_fps:            8.919442
##########                     desc_FPS_es_fps:            2.969390
##########                     desc_FPS_hb_fps:            1.414214
##########              desc_FPS_vdw_fp_numres:                 219
##########               desc_FPS_es_fp_numres:                 219
##########               desc_FPS_hb_fp_numres:                 219
##########                 Pharmacophore_Score:           20.000000
##########              desc_FMS_num_match_tot:                   0
##########              desc_FMS_max_match_ref:                  10
##########              desc_FMS_max_match_mol:                   7
##########                 desc_FMS_match_rate:            4.000000
##########                desc_FMS_match_resid:            0.000000
##########    desc_FMS_num_hydrophobic_matched:                   0
##########          desc_FMS_num_donor_matched:                   0
##########       desc_FMS_num_acceptor_matched:                   0
##########       desc_FMS_num_aromatic_matched:                   0
##########       desc_FMS_num_positive_matched:                   0
##########       desc_FMS_num_negative_matched:                   0
##########           desc_FMS_num_ring_matched:                   0
########## Hungarian_Matching_Similarity_Score:            8.345756
##########       desc_HMS_num_unmtchd_hvy_atms:                  14
##########           desc_HMS_num_ref_hvy_atms:                  23
##########        desc_HMS_rmsd_mtchd_hvy_atms:           10.302277
##########               Property_Volume_Score:            0.000000
##########               desc_VOS_geometric_vo:            0.000000
##########                desc_VOS_hvy_atom_vo:            0.000000
##########            desc_VOS_pos_chrg_atm_vo:            0.000000
##########            desc_VOS_neg_chrg_atm_vo:            0.000000
##########         desc_VOS_hydrophobic_atm_vo:            0.000000
##########         desc_VOS_hydrophilic_atm_vo:            0.000000
##########           Internal_energy_repulsive:            2.245158

@<TRIPOS>MOLECULE
51
 19 19 1 0 0
SMALL
GASTEIGER


@<TRIPOS>ATOM
      1 O          23.7861    8.5586   36.1317 O.2     1  UNL1       -0.2507
      2 C          22.8087    7.9945   36.5755 C.2     1  UNL1        0.3091
      3 O          21.6626    7.9880   35.9419 O.3     1  UNL1       -0.4804
      4 C          22.8517    7.1538   37.8404 C.3     1  UNL1        0.0700
      5 C          22.6186    7.9461   39.1222 C.ar    1  UNL1       -0.0333
      6 C          22.0216    7.3417   40.2325 C.ar    1  UNL1       -0.0165
      7 C          22.9741    9.2963   39.1859 C.ar    1  UNL1       -0.0578
      8 C          21.7977    8.0766   41.3969 C.ar    1  UNL1        0.1171
      9 C          22.7446   10.0308   40.3482 C.ar    1  UNL1       -0.0580
     10 O          21.2250    7.4878   42.4832 O.3     1  UNL1       -0.5068
     11 C          22.1584    9.4209   41.4538 C.ar    1  UNL1       -0.0202
     12 H          21.0086    7.5136   36.4844 H       1  UNL1        0.2951
     13 H          23.8294    6.6679   37.9044 H       1  UNL1        0.0426
     14 H          22.1091    6.3575   37.7506 H       1  UNL1        0.0426
     15 H          21.7318    6.2935   40.1893 H       1  UNL1        0.0657
     16 H          23.4269    9.7867   38.3269 H       1  UNL1        0.0620
     17 H          23.0204   11.0816   40.3910 H       1  UNL1        0.0619
     18 H          20.9874    6.5663   42.2776 H       1  UNL1        0.2921
     19 H          21.9806    9.9959   42.3604 H       1  UNL1        0.0654
@<TRIPOS>BOND
     1     1     2    2
     2     2     3    1
     3     2     4    1
     4     4     5    1
     5     5     6   ar
     6     5     7   ar
     7     6     8   ar
     8     7     9   ar
     9     8    10    1
    10     8    11   ar
    11     9    11   ar
    12     3    12    1
    13     4    13    1
    14     4    14    1
    15     6    15    1
    16     7    16    1
    17     9    17    1
    18    10    18    1
    19    11    19    1
@<TRIPOS>SUBSTRUCTURE
     1 UNL1        1 TEMP              0 ****  ****    0 ROOT


##########                                Name:                  52
##########                DOCK_Rotatable_Bonds:                   2
##########                         Heavy_Atoms:                  14
##########                    Molecular_Weight:             192.171
##########                       Formal_Charge:        -1.49012e-08
##########                     HBond_Acceptors:                   4
##########                        HBond_Donors:                   1
##########                    Descriptor_Score:           41.367302
##########          Footprint_Similarity_Score:           12.393853
##########                 desc_FPS_vdw_energy:          -26.300276
##########                  desc_FPS_es_energy:            0.020184
##########              desc_FPS_vdw+es_energy:          -26.280092
##########                  desc_FPS_num_hbond:                   2
##########                    desc_FPS_vdw_fps:            9.992571
##########                     desc_FPS_es_fps:            2.401282
##########                     desc_FPS_hb_fps:            1.414214
##########              desc_FPS_vdw_fp_numres:                 219
##########               desc_FPS_es_fp_numres:                 219
##########               desc_FPS_hb_fp_numres:                 219
##########                 Pharmacophore_Score:           20.000000
##########              desc_FMS_num_match_tot:                   0
##########              desc_FMS_max_match_ref:                  10
##########              desc_FMS_max_match_mol:                   7
##########                 desc_FMS_match_rate:            4.000000
##########                desc_FMS_match_resid:            0.000000
##########    desc_FMS_num_hydrophobic_matched:                   0
##########          desc_FMS_num_donor_matched:                   0
##########       desc_FMS_num_acceptor_matched:                   0
##########       desc_FMS_num_aromatic_matched:                   0
##########       desc_FMS_num_positive_matched:                   0
##########       desc_FMS_num_negative_matched:                   0
##########           desc_FMS_num_ring_matched:                   0
########## Hungarian_Matching_Similarity_Score:            8.973452
##########       desc_HMS_num_unmtchd_hvy_atms:                  13
##########           desc_HMS_num_ref_hvy_atms:                  23
##########        desc_HMS_rmsd_mtchd_hvy_atms:           11.147365
##########               Property_Volume_Score:            0.000000
##########               desc_VOS_geometric_vo:            0.000000
##########                desc_VOS_hvy_atom_vo:            0.000000
##########            desc_VOS_pos_chrg_atm_vo:            0.000000
##########            desc_VOS_neg_chrg_atm_vo:            0.000000
##########         desc_VOS_hydrophobic_atm_vo:            0.000000
##########         desc_VOS_hydrophilic_atm_vo:            0.000000
##########           Internal_energy_repulsive:            4.300086

@<TRIPOS>MOLECULE
52
 22 23 1 0 0
SMALL
GASTEIGER


@<TRIPOS>ATOM
      1 O          20.9726    7.5282   42.6762 O.2     1  UNL1       -0.2452
      2 C          21.6139    8.1179   41.8319 C.ar    1  UNL1        0.3372
      3 O          21.6451    7.6923   40.5442 O.2     1  UNL1       -0.4220
      4 C          22.3976    9.3339   42.1017 C.ar    1  UNL1        0.0236
      5 C          22.4023    8.2668   39.5421 C.ar    1  UNL1        0.1428
      6 C          23.1056   10.0328   41.0659 C.ar    1  UNL1       -0.0442
      7 C          23.0829    9.5075   39.7807 C.ar    1  UNL1        0.0213
      8 C          22.2935    7.7647   38.2022 C.ar    1  UNL1        0.0267
      9 C          23.7022   10.1527   38.7133 C.ar    1  UNL1       -0.0059
     10 C          22.9175    8.4411   37.1531 C.ar    1  UNL1        0.1648
     11 C          23.6317    9.6322   37.4163 C.ar    1  UNL1        0.1592
     12 O          22.7696    7.8568   35.8991 O.3     1  UNL1       -0.4913
     13 O          24.2687   10.3357   36.4329 O.3     1  UNL1       -0.5033
     14 C          23.1992    8.4169   34.6359 C.3     1  UNL1        0.0790
     15 H          22.3777    9.6813   43.1294 H       1  UNL1        0.0689
     16 H          23.6176   10.9682   41.2767 H       1  UNL1        0.0627
     17 H          21.7388    6.8498   38.0090 H       1  UNL1        0.0692
     18 H          24.2382   11.0824   38.8901 H       1  UNL1        0.0662
     19 H          24.6212   11.1685   36.7915 H       1  UNL1        0.2923
     20 H          22.9047    7.7384   33.8315 H       1  UNL1        0.0660
     21 H          24.2869    8.5276   34.6355 H       1  UNL1        0.0660
     22 H          22.7209    9.3885   34.4849 H       1  UNL1        0.0660
@<TRIPOS>BOND
     1     1     2    2
     2     2     3   ar
     3     2     4   ar
     4     3     5   ar
     5     4     6   ar
     6     5     7   ar
     7     5     8   ar
     8     7     9   ar
     9     8    10   ar
    10     9    11   ar
    11    10    12    1
    12    11    13    1
    13    12    14    1
    14     6     7   ar
    15    10    11   ar
    16     4    15    1
    17     6    16    1
    18     8    17    1
    19     9    18    1
    20    13    19    1
    21    14    20    1
    22    14    21    1
    23    14    22    1
@<TRIPOS>SUBSTRUCTURE
     1 UNL1        1 TEMP              0 ****  ****    0 ROOT


##########                                Name:                  52
##########                DOCK_Rotatable_Bonds:                   2
##########                         Heavy_Atoms:                  14
##########                    Molecular_Weight:             192.171
##########                       Formal_Charge:        -1.49012e-08
##########                     HBond_Acceptors:                   4
##########                        HBond_Donors:                   1
##########                    Descriptor_Score:           41.403046
##########          Footprint_Similarity_Score:           12.377096
##########                 desc_FPS_vdw_energy:          -25.820755
##########                  desc_FPS_es_energy:            0.088306
##########              desc_FPS_vdw+es_energy:          -25.732449
##########                  desc_FPS_num_hbond:                   2
##########                    desc_FPS_vdw_fps:            9.940224
##########                     desc_FPS_es_fps:            2.436872
##########                     desc_FPS_hb_fps:            1.414214
##########              desc_FPS_vdw_fp_numres:                 219
##########               desc_FPS_es_fp_numres:                 219
##########               desc_FPS_hb_fp_numres:                 219
##########                 Pharmacophore_Score:           20.000000
##########              desc_FMS_num_match_tot:                   0
##########              desc_FMS_max_match_ref:                  10
##########              desc_FMS_max_match_mol:                   7
##########                 desc_FMS_match_rate:            4.000000
##########                desc_FMS_match_resid:            0.000000
##########    desc_FMS_num_hydrophobic_matched:                   0
##########          desc_FMS_num_donor_matched:                   0
##########       desc_FMS_num_acceptor_matched:                   0
##########       desc_FMS_num_aromatic_matched:                   0
##########       desc_FMS_num_positive_matched:                   0
##########       desc_FMS_num_negative_matched:                   0
##########           desc_FMS_num_ring_matched:                   0
########## Hungarian_Matching_Similarity_Score:            9.025947
##########       desc_HMS_num_unmtchd_hvy_atms:                  13
##########           desc_HMS_num_ref_hvy_atms:                  23
##########        desc_HMS_rmsd_mtchd_hvy_atms:           11.199860
##########               Property_Volume_Score:            0.000000
##########               desc_VOS_geometric_vo:            0.000000
##########                desc_VOS_hvy_atom_vo:            0.000000
##########            desc_VOS_pos_chrg_atm_vo:            0.000000
##########            desc_VOS_neg_chrg_atm_vo:            0.000000
##########         desc_VOS_hydrophobic_atm_vo:            0.000000
##########         desc_VOS_hydrophilic_atm_vo:            0.000000
##########           Internal_energy_repulsive:            4.405483

@<TRIPOS>MOLECULE
52
 22 23 1 0 0
SMALL
GASTEIGER


@<TRIPOS>ATOM
      1 O          21.1468    7.4607   42.6828 O.2     1  UNL1       -0.2452
      2 C          21.7513    8.0423   41.8063 C.ar    1  UNL1        0.3372
      3 O          21.6717    7.6458   40.5115 O.2     1  UNL1       -0.4220
      4 C          22.6047    9.2175   42.0431 C.ar    1  UNL1        0.0236
      5 C          22.3798    8.2109   39.4690 C.ar    1  UNL1        0.1428
      6 C          23.2668    9.9098   40.9731 C.ar    1  UNL1       -0.0442
      7 C          23.1293    9.4159   39.6826 C.ar    1  UNL1        0.0213
      8 C          22.1537    7.7452   38.1306 C.ar    1  UNL1        0.0267
      9 C          23.6985   10.0591   38.5863 C.ar    1  UNL1       -0.0059
     10 C          22.7301    8.4188   37.0529 C.ar    1  UNL1        0.1648
     11 C          23.5127    9.5723   37.2877 C.ar    1  UNL1        0.1592
     12 O          22.4675    7.8706   35.8013 O.3     1  UNL1       -0.4913
     13 O          24.1080   10.2709   36.2751 O.3     1  UNL1       -0.5033
     14 C          22.9461    8.3681   34.5297 C.3     1  UNL1        0.0790
     15 H          22.6735    9.5415   43.0764 H       1  UNL1        0.0689
     16 H          23.8330   10.8176   41.1651 H       1  UNL1        0.0627
     17 H          21.5471    6.8592   37.9596 H       1  UNL1        0.0692
     18 H          24.2859   10.9609   38.7426 H       1  UNL1        0.0662
     19 H          24.5260   11.0767   36.6248 H       1  UNL1        0.2923
     20 H          22.5351    7.7458   33.7308 H       1  UNL1        0.0660
     21 H          24.0380    8.3155   34.5034 H       1  UNL1        0.0660
     22 H          22.6146    9.4009   34.3925 H       1  UNL1        0.0660
@<TRIPOS>BOND
     1     1     2    2
     2     2     3   ar
     3     2     4   ar
     4     3     5   ar
     5     4     6   ar
     6     5     7   ar
     7     5     8   ar
     8     7     9   ar
     9     8    10   ar
    10     9    11   ar
    11    10    12    1
    12    11    13    1
    13    12    14    1
    14     6     7   ar
    15    10    11   ar
    16     4    15    1
    17     6    16    1
    18     8    17    1
    19     9    18    1
    20    13    19    1
    21    14    20    1
    22    14    21    1
    23    14    22    1
@<TRIPOS>SUBSTRUCTURE
     1 UNL1        1 TEMP              0 ****  ****    0 ROOT


##########                                Name:                  52
##########                DOCK_Rotatable_Bonds:                   2
##########                         Heavy_Atoms:                  14
##########                    Molecular_Weight:             192.171
##########                       Formal_Charge:        -1.49012e-08
##########                     HBond_Acceptors:                   4
##########                        HBond_Donors:                   1
##########                    Descriptor_Score:           41.531590
##########          Footprint_Similarity_Score:           12.496365
##########                 desc_FPS_vdw_energy:          -26.265936
##########                  desc_FPS_es_energy:            0.126798
##########              desc_FPS_vdw+es_energy:          -26.139137
##########                  desc_FPS_num_hbond:                   1
##########                    desc_FPS_vdw_fps:           10.039318
##########                     desc_FPS_es_fps:            2.457046
##########                     desc_FPS_hb_fps:            1.000000
##########              desc_FPS_vdw_fp_numres:                 219
##########               desc_FPS_es_fp_numres:                 219
##########               desc_FPS_hb_fp_numres:                 219
##########                 Pharmacophore_Score:           20.000000
##########              desc_FMS_num_match_tot:                   0
##########              desc_FMS_max_match_ref:                  10
##########              desc_FMS_max_match_mol:                   7
##########                 desc_FMS_match_rate:            4.000000
##########                desc_FMS_match_resid:            0.000000
##########    desc_FMS_num_hydrophobic_matched:                   0
##########          desc_FMS_num_donor_matched:                   0
##########       desc_FMS_num_acceptor_matched:                   0
##########       desc_FMS_num_aromatic_matched:                   0
##########       desc_FMS_num_positive_matched:                   0
##########       desc_FMS_num_negative_matched:                   0
##########           desc_FMS_num_ring_matched:                   0
########## Hungarian_Matching_Similarity_Score:            9.035225
##########       desc_HMS_num_unmtchd_hvy_atms:                  13
##########           desc_HMS_num_ref_hvy_atms:                  23
##########        desc_HMS_rmsd_mtchd_hvy_atms:           11.209138
##########               Property_Volume_Score:            0.000000
##########               desc_VOS_geometric_vo:            0.000000
##########                desc_VOS_hvy_atom_vo:            0.000000
##########            desc_VOS_pos_chrg_atm_vo:            0.000000
##########            desc_VOS_neg_chrg_atm_vo:            0.000000
##########         desc_VOS_hydrophobic_atm_vo:            0.000000
##########         desc_VOS_hydrophilic_atm_vo:            0.000000
##########           Internal_energy_repulsive:            4.433269

@<TRIPOS>MOLECULE
52
 22 23 1 0 0
SMALL
GASTEIGER


@<TRIPOS>ATOM
      1 O          21.0292    7.4834   42.6627 O.2     1  UNL1       -0.2452
      2 C          21.6471    8.1187   41.8342 C.ar    1  UNL1        0.3372
      3 O          21.8044    7.6608   40.5670 O.2     1  UNL1       -0.4220
      4 C          22.2668    9.4263   42.1020 C.ar    1  UNL1        0.0236
      5 C          22.5484    8.2898   39.5881 C.ar    1  UNL1        0.1428
      6 C          22.9497   10.1720   41.0820 C.ar    1  UNL1       -0.0442
      7 C          23.0650    9.6089   39.8180 C.ar    1  UNL1        0.0213
      8 C          22.5790    7.7379   38.2638 C.ar    1  UNL1        0.0267
      9 C          23.6681   10.2899   38.7636 C.ar    1  UNL1       -0.0059
     10 C          23.1820    8.4510   37.2268 C.ar    1  UNL1        0.1648
     11 C          23.7362    9.7255   37.4850 C.ar    1  UNL1        0.1592
     12 O          23.1782    7.8155   35.9890 O.3     1  UNL1       -0.4913
     13 O          24.3449   10.4690   36.5132 O.3     1  UNL1       -0.5033
     14 C          23.7852    8.3068   34.7709 C.3     1  UNL1        0.0790
     15 H          22.1453    9.8001   43.1133 H       1  UNL1        0.0689
     16 H          23.3362   11.1672   41.2862 H       1  UNL1        0.0627
     17 H          22.1468    6.7585   38.0741 H       1  UNL1        0.0692
     18 H          24.0811   11.2812   38.9354 H       1  UNL1        0.0662
     19 H          24.6431   11.3194   36.8796 H       1  UNL1        0.2923
     20 H          23.5750    7.6012   33.9632 H       1  UNL1        0.0660
     21 H          24.8669    8.3880   34.9077 H       1  UNL1        0.0660
     22 H          23.3623    9.2832   34.5193 H       1  UNL1        0.0660
@<TRIPOS>BOND
     1     1     2    2
     2     2     3   ar
     3     2     4   ar
     4     3     5   ar
     5     4     6   ar
     6     5     7   ar
     7     5     8   ar
     8     7     9   ar
     9     8    10   ar
    10     9    11   ar
    11    10    12    1
    12    11    13    1
    13    12    14    1
    14     6     7   ar
    15    10    11   ar
    16     4    15    1
    17     6    16    1
    18     8    17    1
    19     9    18    1
    20    13    19    1
    21    14    20    1
    22    14    21    1
    23    14    22    1
@<TRIPOS>SUBSTRUCTURE
     1 UNL1        1 TEMP              0 ****  ****    0 ROOT


##########                                Name:                  54
##########                DOCK_Rotatable_Bonds:                   2
##########                         Heavy_Atoms:                   9
##########                    Molecular_Weight:             122.127
##########                       Formal_Charge:        -1.49012e-08
##########                     HBond_Acceptors:                   3
##########                        HBond_Donors:                   2
##########                    Descriptor_Score:           39.062824
##########          Footprint_Similarity_Score:           10.666676
##########                 desc_FPS_vdw_energy:          -18.666176
##########                  desc_FPS_es_energy:           -0.628698
##########              desc_FPS_vdw+es_energy:          -19.294874
##########                  desc_FPS_num_hbond:                   1
##########                    desc_FPS_vdw_fps:            8.742767
##########                     desc_FPS_es_fps:            1.923909
##########                     desc_FPS_hb_fps:            1.000000
##########              desc_FPS_vdw_fp_numres:                 219
##########               desc_FPS_es_fp_numres:                 219
##########               desc_FPS_hb_fp_numres:                 219
##########                 Pharmacophore_Score:           20.000000
##########              desc_FMS_num_match_tot:                   0
##########              desc_FMS_max_match_ref:                  10
##########              desc_FMS_max_match_mol:                   5
##########                 desc_FMS_match_rate:            4.000000
##########                desc_FMS_match_resid:            0.000000
##########    desc_FMS_num_hydrophobic_matched:                   0
##########          desc_FMS_num_donor_matched:                   0
##########       desc_FMS_num_acceptor_matched:                   0
##########       desc_FMS_num_aromatic_matched:                   0
##########       desc_FMS_num_positive_matched:                   0
##########       desc_FMS_num_negative_matched:                   0
##########           desc_FMS_num_ring_matched:                   0
########## Hungarian_Matching_Similarity_Score:            8.396150
##########       desc_HMS_num_unmtchd_hvy_atms:                  18
##########           desc_HMS_num_ref_hvy_atms:                  23
##########        desc_HMS_rmsd_mtchd_hvy_atms:            9.483106
##########               Property_Volume_Score:            0.000000
##########               desc_VOS_geometric_vo:            0.000000
##########                desc_VOS_hvy_atom_vo:            0.000000
##########            desc_VOS_pos_chrg_atm_vo:            0.000000
##########            desc_VOS_neg_chrg_atm_vo:            0.000000
##########         desc_VOS_hydrophobic_atm_vo:            0.000000
##########         desc_VOS_hydrophilic_atm_vo:            0.000000
##########           Internal_energy_repulsive:            1.245286

@<TRIPOS>MOLECULE
54
 15 15 1 0 0
SMALL
GASTEIGER


@<TRIPOS>ATOM
      1 O          21.3654    7.9605   42.4016 O.2     1  UNL1       -0.2704
      2 C          22.0321    8.6752   41.6813 C.2     1  UNL1        0.2430
      3 N          22.5360    9.8248   42.1678 N.am    1  UNL1       -0.3253
      4 C          22.3269    8.3446   40.2441 C.ar    1  UNL1        0.0545
      5 C          22.0477    7.0619   39.7589 C.ar    1  UNL1        0.0396
      6 C          22.8759    9.2755   39.3534 C.ar    1  UNL1       -0.0467
      7 N          22.2759    6.6810   38.4806 N.ar    1  UNL1       -0.2625
      8 C          23.1166    8.8938   38.0354 C.ar    1  UNL1       -0.0429
      9 C          22.8039    7.5953   37.6376 C.ar    1  UNL1        0.0276
     10 H          22.3591   10.0797   43.1275 H       1  UNL1        0.1453
     11 H          23.0769   10.4350   41.5757 H       1  UNL1        0.1453
     12 H          21.6203    6.2971   40.4055 H       1  UNL1        0.0837
     13 H          23.1191   10.2865   39.6673 H       1  UNL1        0.0626
     14 H          23.5423    9.5990   37.3258 H       1  UNL1        0.0633
     15 H          22.9755    7.2602   36.6163 H       1  UNL1        0.0829
@<TRIPOS>BOND
     1     1     2    2
     2     2     3   am
     3     2     4    1
     4     4     5   ar
     5     4     6   ar
     6     5     7   ar
     7     6     8   ar
     8     7     9   ar
     9     8     9   ar
    10     3    10    1
    11     3    11    1
    12     5    12    1
    13     6    13    1
    14     8    14    1
    15     9    15    1
@<TRIPOS>SUBSTRUCTURE
     1 UNL1        1 TEMP              0 ****  ****    0 ROOT


##########                                Name:                  54
##########                DOCK_Rotatable_Bonds:                   2
##########                         Heavy_Atoms:                   9
##########                    Molecular_Weight:             122.127
##########                       Formal_Charge:        -1.49012e-08
##########                     HBond_Acceptors:                   3
##########                        HBond_Donors:                   2
##########                    Descriptor_Score:           39.099491
##########          Footprint_Similarity_Score:           10.992610
##########                 desc_FPS_vdw_energy:          -20.074095
##########                  desc_FPS_es_energy:           -0.789550
##########              desc_FPS_vdw+es_energy:          -20.863646
##########                  desc_FPS_num_hbond:                   1
##########                    desc_FPS_vdw_fps:            9.071162
##########                     desc_FPS_es_fps:            1.921448
##########                     desc_FPS_hb_fps:            1.000000
##########              desc_FPS_vdw_fp_numres:                 219
##########               desc_FPS_es_fp_numres:                 219
##########               desc_FPS_hb_fp_numres:                 219
##########                 Pharmacophore_Score:           20.000000
##########              desc_FMS_num_match_tot:                   0
##########              desc_FMS_max_match_ref:                  10
##########              desc_FMS_max_match_mol:                   5
##########                 desc_FMS_match_rate:            4.000000
##########                desc_FMS_match_resid:            0.000000
##########    desc_FMS_num_hydrophobic_matched:                   0
##########          desc_FMS_num_donor_matched:                   0
##########       desc_FMS_num_acceptor_matched:                   0
##########       desc_FMS_num_aromatic_matched:                   0
##########       desc_FMS_num_positive_matched:                   0
##########       desc_FMS_num_negative_matched:                   0
##########           desc_FMS_num_ring_matched:                   0
########## Hungarian_Matching_Similarity_Score:            8.106881
##########       desc_HMS_num_unmtchd_hvy_atms:                  18
##########           desc_HMS_num_ref_hvy_atms:                  23
##########        desc_HMS_rmsd_mtchd_hvy_atms:            9.193838
##########               Property_Volume_Score:            0.000000
##########               desc_VOS_geometric_vo:            0.000000
##########                desc_VOS_hvy_atom_vo:            0.000000
##########            desc_VOS_pos_chrg_atm_vo:            0.000000
##########            desc_VOS_neg_chrg_atm_vo:            0.000000
##########         desc_VOS_hydrophobic_atm_vo:            0.000000
##########         desc_VOS_hydrophilic_atm_vo:            0.000000
##########           Internal_energy_repulsive:            1.358666

@<TRIPOS>MOLECULE
54
 15 15 1 0 0
SMALL
GASTEIGER


@<TRIPOS>ATOM
      1 O          22.0192    6.3030   39.1468 O.2     1  UNL1       -0.2704
      2 C          22.4554    7.4162   38.9353 C.2     1  UNL1        0.2430
      3 N          22.8761    7.7415   37.6986 N.am    1  UNL1       -0.3253
      4 C          22.5605    8.4718   40.0013 C.ar    1  UNL1        0.0545
      5 C          22.1055    8.1945   41.2955 C.ar    1  UNL1        0.0396
      6 C          23.1019    9.7399   39.7562 C.ar    1  UNL1       -0.0467
      7 N          22.1667    9.0825   42.3148 N.ar    1  UNL1       -0.2625
      8 C          23.1684   10.6627   40.7977 C.ar    1  UNL1       -0.0429
      9 C          22.6948   10.2991   42.0569 C.ar    1  UNL1        0.0276
     10 H          22.8210    7.0591   36.9579 H       1  UNL1        0.1453
     11 H          23.2558    8.6564   37.5138 H       1  UNL1        0.1453
     12 H          21.6753    7.2257   41.5444 H       1  UNL1        0.0837
     13 H          23.4694   10.0200   38.7731 H       1  UNL1        0.0626
     14 H          23.5844   11.6533   40.6315 H       1  UNL1        0.0633
     15 H          22.7312   10.9915   42.8961 H       1  UNL1        0.0829
@<TRIPOS>BOND
     1     1     2    2
     2     2     3   am
     3     2     4    1
     4     4     5   ar
     5     4     6   ar
     6     5     7   ar
     7     6     8   ar
     8     7     9   ar
     9     8     9   ar
    10     3    10    1
    11     3    11    1
    12     5    12    1
    13     6    13    1
    14     8    14    1
    15     9    15    1
@<TRIPOS>SUBSTRUCTURE
     1 UNL1        1 TEMP              0 ****  ****    0 ROOT


##########                                Name:                  54
##########                DOCK_Rotatable_Bonds:                   2
##########                         Heavy_Atoms:                   9
##########                    Molecular_Weight:             122.127
##########                       Formal_Charge:        -1.49012e-08
##########                     HBond_Acceptors:                   3
##########                        HBond_Donors:                   2
##########                    Descriptor_Score:           38.923485
##########          Footprint_Similarity_Score:           10.846952
##########                 desc_FPS_vdw_energy:          -20.004234
##########                  desc_FPS_es_energy:           -0.866975
##########              desc_FPS_vdw+es_energy:          -20.871210
##########                  desc_FPS_num_hbond:                   1
##########                    desc_FPS_vdw_fps:            8.960886
##########                     desc_FPS_es_fps:            1.886066
##########                     desc_FPS_hb_fps:            1.000000
##########              desc_FPS_vdw_fp_numres:                 219
##########               desc_FPS_es_fp_numres:                 219
##########               desc_FPS_hb_fp_numres:                 219
##########                 Pharmacophore_Score:           20.000000
##########              desc_FMS_num_match_tot:                   0
##########              desc_FMS_max_match_ref:                  10
##########              desc_FMS_max_match_mol:                   5
##########                 desc_FMS_match_rate:            4.000000
##########                desc_FMS_match_resid:            0.000000
##########    desc_FMS_num_hydrophobic_matched:                   0
##########          desc_FMS_num_donor_matched:                   0
##########       desc_FMS_num_acceptor_matched:                   0
##########       desc_FMS_num_aromatic_matched:                   0
##########       desc_FMS_num_positive_matched:                   0
##########       desc_FMS_num_negative_matched:                   0
##########           desc_FMS_num_ring_matched:                   0
########## Hungarian_Matching_Similarity_Score:            8.076532
##########       desc_HMS_num_unmtchd_hvy_atms:                  18
##########           desc_HMS_num_ref_hvy_atms:                  23
##########        desc_HMS_rmsd_mtchd_hvy_atms:            9.163488
##########               Property_Volume_Score:            0.000000
##########               desc_VOS_geometric_vo:            0.000000
##########                desc_VOS_hvy_atom_vo:            0.000000
##########            desc_VOS_pos_chrg_atm_vo:            0.000000
##########            desc_VOS_neg_chrg_atm_vo:            0.000000
##########         desc_VOS_hydrophobic_atm_vo:            0.000000
##########         desc_VOS_hydrophilic_atm_vo:            0.000000
##########           Internal_energy_repulsive:            1.333364

@<TRIPOS>MOLECULE
54
 15 15 1 0 0
SMALL
GASTEIGER


@<TRIPOS>ATOM
      1 O          22.0676    6.6728   38.4895 O.2     1  UNL1       -0.2704
      2 C          22.4170    7.8339   38.5529 C.2     1  UNL1        0.2430
      3 N          22.7675    8.4851   37.4281 N.am    1  UNL1       -0.3253
      4 C          22.4883    8.5992   39.8456 C.ar    1  UNL1        0.0545
      5 C          22.0225    8.0076   41.0253 C.ar    1  UNL1        0.0396
      6 C          23.0083    9.8970   39.9260 C.ar    1  UNL1       -0.0467
      7 N          22.0537    8.6210   42.2312 N.ar    1  UNL1       -0.2625
      8 C          23.0438   10.5389   41.1619 C.ar    1  UNL1       -0.0429
      9 C          22.5614    9.8718   42.2864 C.ar    1  UNL1        0.0276
     10 H          22.7323    8.0041   36.5423 H       1  UNL1        0.1453
     11 H          23.0754    9.4438   37.4692 H       1  UNL1        0.1453
     12 H          21.6079    7.0007   41.0235 H       1  UNL1        0.0837
     13 H          23.3827   10.4141   39.0471 H       1  UNL1        0.0626
     14 H          23.4427   11.5465   41.2491 H       1  UNL1        0.0633
     15 H          22.5739   10.3391   43.2695 H       1  UNL1        0.0829
@<TRIPOS>BOND
     1     1     2    2
     2     2     3   am
     3     2     4    1
     4     4     5   ar
     5     4     6   ar
     6     5     7   ar
     7     6     8   ar
     8     7     9   ar
     9     8     9   ar
    10     3    10    1
    11     3    11    1
    12     5    12    1
    13     6    13    1
    14     8    14    1
    15     9    15    1
@<TRIPOS>SUBSTRUCTURE
     1 UNL1        1 TEMP              0 ****  ****    0 ROOT


##########                                Name:                  55
##########                DOCK_Rotatable_Bonds:                   2
##########                         Heavy_Atoms:                   9
##########                    Molecular_Weight:             123.111
##########                       Formal_Charge:         9.99421e-05
##########                     HBond_Acceptors:                   3
##########                        HBond_Donors:                   1
##########                    Descriptor_Score:           39.136066
##########          Footprint_Similarity_Score:           11.168797
##########                 desc_FPS_vdw_energy:          -18.421900
##########                  desc_FPS_es_energy:           -1.897220
##########              desc_FPS_vdw+es_energy:          -20.319120
##########                  desc_FPS_num_hbond:                   1
##########                    desc_FPS_vdw_fps:            8.666104
##########                     desc_FPS_es_fps:            2.502693
##########                     desc_FPS_hb_fps:            1.000000
##########              desc_FPS_vdw_fp_numres:                 219
##########               desc_FPS_es_fp_numres:                 219
##########               desc_FPS_hb_fp_numres:                 219
##########                 Pharmacophore_Score:           20.000000
##########              desc_FMS_num_match_tot:                   0
##########              desc_FMS_max_match_ref:                  10
##########              desc_FMS_max_match_mol:                   5
##########                 desc_FMS_match_rate:            4.000000
##########                desc_FMS_match_resid:            0.000000
##########    desc_FMS_num_hydrophobic_matched:                   0
##########          desc_FMS_num_donor_matched:                   0
##########       desc_FMS_num_acceptor_matched:                   0
##########       desc_FMS_num_aromatic_matched:                   0
##########       desc_FMS_num_positive_matched:                   0
##########       desc_FMS_num_negative_matched:                   0
##########           desc_FMS_num_ring_matched:                   0
########## Hungarian_Matching_Similarity_Score:            7.967270
##########       desc_HMS_num_unmtchd_hvy_atms:                  16
##########           desc_HMS_num_ref_hvy_atms:                  23
##########        desc_HMS_rmsd_mtchd_hvy_atms:            9.489009
##########               Property_Volume_Score:            0.000000
##########               desc_VOS_geometric_vo:            0.000000
##########                desc_VOS_hvy_atom_vo:            0.000000
##########            desc_VOS_pos_chrg_atm_vo:            0.000000
##########            desc_VOS_neg_chrg_atm_vo:            0.000000
##########         desc_VOS_hydrophobic_atm_vo:            0.000000
##########         desc_VOS_hydrophilic_atm_vo:            0.000000
##########           Internal_energy_repulsive:            1.206079

@<TRIPOS>MOLECULE
55
 14 14 1 0 0
SMALL
GASTEIGER


@<TRIPOS>ATOM
      1 O          22.0427    9.4613   42.6564 O.2     1  UNL1       -0.2451
      2 C          21.8440    8.4785   41.9716 C.2     1  UNL1        0.3383
      3 O          21.2142    7.4393   42.4560 O.3     1  UNL1       -0.4771
      4 C          22.3007    8.3654   40.5423 C.ar    1  UNL1        0.0769
      5 C          22.1122    7.2014   39.7835 C.ar    1  UNL1        0.0415
      6 C          22.9373    9.4476   39.9282 C.ar    1  UNL1       -0.0449
      7 N          22.5165    7.0778   38.4983 N.ar    1  UNL1       -0.2624
      8 C          23.3597    9.3312   38.6061 C.ar    1  UNL1       -0.0428
      9 C          23.1330    8.1360   37.9269 C.ar    1  UNL1        0.0276
     10 H          21.4179    6.6771   41.8907 H       1  UNL1        0.2954
     11 H          21.6195    6.3226   40.1921 H       1  UNL1        0.0838
     12 H          23.1076   10.3740   40.4716 H       1  UNL1        0.0627
     13 H          23.8596   10.1605   38.1112 H       1  UNL1        0.0633
     14 H          23.4479    8.0050   36.8931 H       1  UNL1        0.0829
@<TRIPOS>BOND
     1     1     2    2
     2     2     3    1
     3     2     4    1
     4     4     5   ar
     5     4     6   ar
     6     5     7   ar
     7     6     8   ar
     8     7     9   ar
     9     8     9   ar
    10     3    10    1
    11     5    11    1
    12     6    12    1
    13     8    13    1
    14     9    14    1
@<TRIPOS>SUBSTRUCTURE
     1 UNL1        1 TEMP              0 ****  ****    0 ROOT


##########                                Name:                  55
##########                DOCK_Rotatable_Bonds:                   2
##########                         Heavy_Atoms:                   9
##########                    Molecular_Weight:             123.111
##########                       Formal_Charge:         9.99421e-05
##########                     HBond_Acceptors:                   3
##########                        HBond_Donors:                   1
##########                    Descriptor_Score:           38.810837
##########          Footprint_Similarity_Score:           10.858160
##########                 desc_FPS_vdw_energy:          -19.610523
##########                  desc_FPS_es_energy:           -1.249470
##########              desc_FPS_vdw+es_energy:          -20.859993
##########                  desc_FPS_num_hbond:                   0
##########                    desc_FPS_vdw_fps:            8.725753
##########                     desc_FPS_es_fps:            2.132408
##########                     desc_FPS_hb_fps:            0.000000
##########              desc_FPS_vdw_fp_numres:                 219
##########               desc_FPS_es_fp_numres:                 219
##########               desc_FPS_hb_fp_numres:                 219
##########                 Pharmacophore_Score:           20.000000
##########              desc_FMS_num_match_tot:                   0
##########              desc_FMS_max_match_ref:                  10
##########              desc_FMS_max_match_mol:                   5
##########                 desc_FMS_match_rate:            4.000000
##########                desc_FMS_match_resid:            0.000000
##########    desc_FMS_num_hydrophobic_matched:                   0
##########          desc_FMS_num_donor_matched:                   0
##########       desc_FMS_num_acceptor_matched:                   0
##########       desc_FMS_num_aromatic_matched:                   0
##########       desc_FMS_num_positive_matched:                   0
##########       desc_FMS_num_negative_matched:                   0
##########           desc_FMS_num_ring_matched:                   0
########## Hungarian_Matching_Similarity_Score:            7.952677
##########       desc_HMS_num_unmtchd_hvy_atms:                  16
##########           desc_HMS_num_ref_hvy_atms:                  23
##########        desc_HMS_rmsd_mtchd_hvy_atms:            9.474416
##########               Property_Volume_Score:            0.000000
##########               desc_VOS_geometric_vo:            0.000000
##########                desc_VOS_hvy_atom_vo:            0.000000
##########            desc_VOS_pos_chrg_atm_vo:            0.000000
##########            desc_VOS_neg_chrg_atm_vo:            0.000000
##########         desc_VOS_hydrophobic_atm_vo:            0.000000
##########         desc_VOS_hydrophilic_atm_vo:            0.000000
##########           Internal_energy_repulsive:            1.101655

@<TRIPOS>MOLECULE
55
 14 14 1 0 0
SMALL
GASTEIGER


@<TRIPOS>ATOM
      1 O          22.4165    9.9784   42.4942 O.2     1  UNL1       -0.2451
      2 C          22.0049    8.9768   41.9447 C.2     1  UNL1        0.3383
      3 O          21.2294    8.1347   42.5777 O.3     1  UNL1       -0.4771
      4 C          22.3484    8.6173   40.5244 C.ar    1  UNL1        0.0769
      5 C          22.0921    7.3471   39.9884 C.ar    1  UNL1        0.0415
      6 C          22.9439    9.5683   39.6911 C.ar    1  UNL1       -0.0449
      7 N          22.3944    7.0023   38.7155 N.ar    1  UNL1       -0.2624
      8 C          23.2614    9.2240   38.3794 C.ar    1  UNL1       -0.0428
      9 C          22.9730    7.9372   37.9296 C.ar    1  UNL1        0.0276
     10 H          21.0625    7.3821   41.9880 H       1  UNL1        0.2954
     11 H          21.6257    6.5593   40.5747 H       1  UNL1        0.0838
     12 H          23.1633   10.5685   40.0568 H       1  UNL1        0.0627
     13 H          23.7279    9.9484   37.7160 H       1  UNL1        0.0633
     14 H          23.2057    7.6290   36.9118 H       1  UNL1        0.0829
@<TRIPOS>BOND
     1     1     2    2
     2     2     3    1
     3     2     4    1
     4     4     5   ar
     5     4     6   ar
     6     5     7   ar
     7     6     8   ar
     8     7     9   ar
     9     8     9   ar
    10     3    10    1
    11     5    11    1
    12     6    12    1
    13     8    13    1
    14     9    14    1
@<TRIPOS>SUBSTRUCTURE
     1 UNL1        1 TEMP              0 ****  ****    0 ROOT


##########                                Name:                  55
##########                DOCK_Rotatable_Bonds:                   2
##########                         Heavy_Atoms:                   9
##########                    Molecular_Weight:             123.111
##########                       Formal_Charge:         9.99421e-05
##########                     HBond_Acceptors:                   3
##########                        HBond_Donors:                   1
##########                    Descriptor_Score:           38.827179
##########          Footprint_Similarity_Score:           10.807759
##########                 desc_FPS_vdw_energy:          -18.184645
##########                  desc_FPS_es_energy:           -1.821349
##########              desc_FPS_vdw+es_energy:          -20.005993
##########                  desc_FPS_num_hbond:                   2
##########                    desc_FPS_vdw_fps:            8.592963
##########                     desc_FPS_es_fps:            2.214796
##########                     desc_FPS_hb_fps:            1.414214
##########              desc_FPS_vdw_fp_numres:                 219
##########               desc_FPS_es_fp_numres:                 219
##########               desc_FPS_hb_fp_numres:                 219
##########                 Pharmacophore_Score:           20.000000
##########              desc_FMS_num_match_tot:                   0
##########              desc_FMS_max_match_ref:                  10
##########              desc_FMS_max_match_mol:                   5
##########                 desc_FMS_match_rate:            4.000000
##########                desc_FMS_match_resid:            0.000000
##########    desc_FMS_num_hydrophobic_matched:                   0
##########          desc_FMS_num_donor_matched:                   0
##########       desc_FMS_num_acceptor_matched:                   0
##########       desc_FMS_num_aromatic_matched:                   0
##########       desc_FMS_num_positive_matched:                   0
##########       desc_FMS_num_negative_matched:                   0
##########           desc_FMS_num_ring_matched:                   0
########## Hungarian_Matching_Similarity_Score:            8.019419
##########       desc_HMS_num_unmtchd_hvy_atms:                  16
##########           desc_HMS_num_ref_hvy_atms:                  23
##########        desc_HMS_rmsd_mtchd_hvy_atms:            9.541158
##########               Property_Volume_Score:            0.000000
##########               desc_VOS_geometric_vo:            0.000000
##########                desc_VOS_hvy_atom_vo:            0.000000
##########            desc_VOS_pos_chrg_atm_vo:            0.000000
##########            desc_VOS_neg_chrg_atm_vo:            0.000000
##########         desc_VOS_hydrophobic_atm_vo:            0.000000
##########         desc_VOS_hydrophilic_atm_vo:            0.000000
##########           Internal_energy_repulsive:            0.982233

@<TRIPOS>MOLECULE
55
 14 14 1 0 0
SMALL
GASTEIGER


@<TRIPOS>ATOM
      1 O          22.0861    7.4596   37.8355 O.2     1  UNL1       -0.2451
      2 C          22.1367    7.2189   39.0246 C.2     1  UNL1        0.3383
      3 O          22.0139    5.9940   39.4671 O.3     1  UNL1       -0.4771
      4 C          22.3307    8.2820   40.0718 C.ar    1  UNL1        0.0769
      5 C          22.0011    8.0777   41.4194 C.ar    1  UNL1        0.0415
      6 C          22.8580    9.5251   39.7110 C.ar    1  UNL1       -0.0449
      7 N          22.1656    9.0199   42.3762 N.ar    1  UNL1       -0.2624
      8 C          23.0299   10.5035   40.6872 C.ar    1  UNL1       -0.0428
      9 C          22.6736   10.2154   42.0030 C.ar    1  UNL1        0.0276
     10 H          22.1604    6.0076   40.4264 H       1  UNL1        0.2954
     11 H          21.5928    7.1348   41.7745 H       1  UNL1        0.0838
     12 H          23.1310    9.7352   38.6797 H       1  UNL1        0.0627
     13 H          23.4357   11.4782   40.4266 H       1  UNL1        0.0633
     14 H          22.7922   10.9528   42.7950 H       1  UNL1        0.0829
@<TRIPOS>BOND
     1     1     2    2
     2     2     3    1
     3     2     4    1
     4     4     5   ar
     5     4     6   ar
     6     5     7   ar
     7     6     8   ar
     8     7     9   ar
     9     8     9   ar
    10     3    10    1
    11     5    11    1
    12     6    12    1
    13     8    13    1
    14     9    14    1
@<TRIPOS>SUBSTRUCTURE
     1 UNL1        1 TEMP              0 ****  ****    0 ROOT


##########                                Name:                  56
##########                DOCK_Rotatable_Bonds:                  16
##########                         Heavy_Atoms:                  43
##########                    Molecular_Weight:             610.525
##########                       Formal_Charge:        -0.000199944
##########                     HBond_Acceptors:                  16
##########                        HBond_Donors:                  10
##########                    Descriptor_Score:           37.441456
##########          Footprint_Similarity_Score:            8.486860
##########                 desc_FPS_vdw_energy:          -44.969700
##########                  desc_FPS_es_energy:           -3.899336
##########              desc_FPS_vdw+es_energy:          -48.869034
##########                  desc_FPS_num_hbond:                   3
##########                    desc_FPS_vdw_fps:            6.579077
##########                     desc_FPS_es_fps:            1.907783
##########                     desc_FPS_hb_fps:            1.732051
##########              desc_FPS_vdw_fp_numres:                 219
##########               desc_FPS_es_fp_numres:                 219
##########               desc_FPS_hb_fp_numres:                 219
##########                 Pharmacophore_Score:           20.000000
##########              desc_FMS_num_match_tot:                   0
##########              desc_FMS_max_match_ref:                  10
##########              desc_FMS_max_match_mol:                  32
##########                 desc_FMS_match_rate:            4.000000
##########                desc_FMS_match_resid:            0.000000
##########    desc_FMS_num_hydrophobic_matched:                   0
##########          desc_FMS_num_donor_matched:                   0
##########       desc_FMS_num_acceptor_matched:                   0
##########       desc_FMS_num_aromatic_matched:                   0
##########       desc_FMS_num_positive_matched:                   0
##########       desc_FMS_num_negative_matched:                   0
##########           desc_FMS_num_ring_matched:                   0
########## Hungarian_Matching_Similarity_Score:            9.132897
##########       desc_HMS_num_unmtchd_hvy_atms:                  30
##########           desc_HMS_num_ref_hvy_atms:                  23
##########        desc_HMS_rmsd_mtchd_hvy_atms:            7.611158
##########               Property_Volume_Score:            0.178302
##########               desc_VOS_geometric_vo:            0.382389
##########                desc_VOS_hvy_atom_vo:            0.324400
##########            desc_VOS_pos_chrg_atm_vo:            0.108164
##########            desc_VOS_neg_chrg_atm_vo:            0.200905
##########         desc_VOS_hydrophobic_atm_vo:            0.024812
##########         desc_VOS_hydrophilic_atm_vo:            0.029144
##########           Internal_energy_repulsive:           21.317371

@<TRIPOS>MOLECULE
56
 73 77 1 0 0
SMALL
GASTEIGER


@<TRIPOS>ATOM
      1 O           5.9141   12.6705   44.8724 O.2     1  UNL1       -0.2830
      2 C           5.4904   13.7605   45.2080 C.ar    1  UNL1        0.2382
      3 C           5.9157   15.0854   44.6384 C.ar    1  UNL1        0.2138
      4 C           4.4154   13.9004   46.2009 C.ar    1  UNL1        0.1092
      5 O           6.6878   15.1506   43.4802 O.3     1  UNL1       -0.4532
      6 C           5.5393   16.1001   45.0082 C.ar    1  UNL1        0.1810
      7 C           4.0794   15.1919   46.5103 C.ar    1  UNL1        0.1465
      8 C           3.6427   12.8330   46.7981 C.ar    1  UNL1        0.1348
      9 C           7.1994   13.9824   42.7696 C.3     1  UNL1        0.2311
     10 O           4.7669   16.1816   45.8287 O.2     1  UNL1       -0.4507
     11 C           5.9580   17.5682   44.8687 C.ar    1  UNL1        0.0247
     12 C           3.0795   15.4642   47.5202 C.ar    1  UNL1        0.0231
     13 O           3.8019   11.5575   46.3531 O.3     1  UNL1       -0.5058
     14 C           2.6468   13.1016   47.7303 C.ar    1  UNL1        0.0223
     15 O           8.3690   13.4292   43.4327 O.3     1  UNL1       -0.3313
     16 C           7.5672   14.3546   41.3252 C.3     1  UNL1        0.1454
     17 C           5.1422   18.6446   45.3084 C.ar    1  UNL1       -0.0057
     18 C           7.2009   17.9063   44.2840 C.ar    1  UNL1       -0.0473
     19 C           2.3766   14.4105   48.1125 C.ar    1  UNL1        0.1239
     20 C           9.5406   14.2892   43.5207 C.3     1  UNL1        0.1144
     21 O           6.4385   14.9596   40.6854 O.3     1  UNL1       -0.3829
     22 C           8.7773   15.3063   41.2984 C.3     1  UNL1        0.1152
     23 C           5.5764   19.9651   45.2036 C.ar    1  UNL1        0.1589
     24 C           7.6123   19.2359   44.1657 C.ar    1  UNL1       -0.0159
     25 O           1.4086   14.6202   49.0535 O.3     1  UNL1       -0.5065
     26 C           9.9812   14.7338   42.0967 C.3     1  UNL1        0.1120
     27 C          10.6479   13.5120   44.2771 C.3     1  UNL1        0.0796
     28 O           9.1320   15.5122   39.9311 O.3     1  UNL1       -0.3864
     29 O           4.8247   20.9948   45.6845 O.3     1  UNL1       -0.5033
     30 C           6.8058   20.2631   44.6414 C.ar    1  UNL1        0.1583
     31 O          10.6086   13.6508   41.3892 O.3     1  UNL1       -0.3865
     32 O          11.9622   14.0323   43.9418 O.3     1  UNL1       -0.3461
     33 O           7.1998   21.5675   44.6215 O.3     1  UNL1       -0.5033
     34 C          13.0509   13.4217   44.6918 C.3     1  UNL1        0.1879
     35 O          14.0318   14.4106   45.1088 O.3     1  UNL1       -0.3431
     36 C          13.7642   12.3504   43.8316 C.3     1  UNL1        0.1341
     37 C          14.7250   15.1149   44.0421 C.3     1  UNL1        0.0873
     38 O          12.8145   11.3787   43.3828 O.3     1  UNL1       -0.3841
     39 C          14.4883   13.0146   42.6346 C.3     1  UNL1        0.1140
     40 C          15.4706   14.1001   43.1356 C.3     1  UNL1        0.1095
     41 C          15.6817   16.1447   44.6791 C.3     1  UNL1       -0.0361
     42 O          15.2186   12.0404   41.8811 O.3     1  UNL1       -0.3864
     43 O          16.5645   13.4884   43.8395 O.3     1  UNL1       -0.3866
     44 H           6.4228   13.2077   42.7124 H       1  UNL1        0.1084
     45 H           2.8861   16.4930   47.8142 H       1  UNL1        0.0691
     46 H           4.5174   11.5747   45.6846 H       1  UNL1        0.2922
     47 H           2.0663   12.2835   48.1520 H       1  UNL1        0.0691
     48 H           7.8218   13.4359   40.7886 H       1  UNL1        0.0683
     49 H           4.1641   18.4630   45.7481 H       1  UNL1        0.0662
     50 H           7.8799   17.1368   43.9304 H       1  UNL1        0.0626
     51 H           9.2690   15.1728   44.1049 H       1  UNL1        0.0647
     52 H           5.6572   14.4027   40.8527 H       1  UNL1        0.2102
     53 H           8.4895   16.2632   41.7439 H       1  UNL1        0.0648
     54 H           8.5774   19.4675   43.7221 H       1  UNL1        0.0655
     55 H           1.3677   15.5462   49.3377 H       1  UNL1        0.2921
     56 H          10.7247   15.5279   42.2119 H       1  UNL1        0.0647
     57 H          10.6049   12.4525   44.0077 H       1  UNL1        0.0587
     58 H          10.4945   13.6046   45.3557 H       1  UNL1        0.0587
     59 H           8.3654   15.8983   39.4912 H       1  UNL1        0.2100
     60 H           3.9591   20.6522   45.9337 H       1  UNL1        0.2923
     61 H          11.4208   13.3812   41.8498 H       1  UNL1        0.2100
     62 H           6.4778   22.0760   45.0676 H       1  UNL1        0.2923
     63 H          12.6287   12.9551   45.5960 H       1  UNL1        0.0937
     64 H          14.5046   11.8411   44.4547 H       1  UNL1        0.0671
     65 H          13.9834   15.6507   43.4425 H       1  UNL1        0.0621
     66 H          12.1659   11.2316   44.0925 H       1  UNL1        0.2101
     67 H          13.7435   13.4802   41.9830 H       1  UNL1        0.0648
     68 H          15.8733   14.6303   42.2674 H       1  UNL1        0.0646
     69 H          16.3959   15.6599   45.3486 H       1  UNL1        0.0255
     70 H          15.1171   16.8765   45.2610 H       1  UNL1        0.0255
     71 H          16.2401   16.6780   43.9065 H       1  UNL1        0.0255
     72 H          15.8814   11.6466   42.4811 H       1  UNL1        0.2100
     73 H          16.9864   12.8300   43.2566 H       1  UNL1        0.2100
@<TRIPOS>BOND
     1     1     2    2
     2     2     3   ar
     3     2     4   ar
     4     3     5    1
     5     3     6   ar
     6     4     7   ar
     7     4     8   ar
     8     5     9    1
     9     6    10   ar
    10     6    11    1
    11     7    12   ar
    12     8    13    1
    13     8    14   ar
    14     9    15    1
    15     9    16    1
    16    11    17   ar
    17    11    18   ar
    18    12    19   ar
    19    15    20    1
    20    16    21    1
    21    16    22    1
    22    17    23   ar
    23    18    24   ar
    24    19    25    1
    25    20    26    1
    26    20    27    1
    27    22    28    1
    28    23    29    1
    29    23    30   ar
    30    26    31    1
    31    27    32    1
    32    30    33    1
    33    32    34    1
    34    34    35    1
    35    34    36    1
    36    35    37    1
    37    36    38    1
    38    36    39    1
    39    37    40    1
    40    37    41    1
    41    39    42    1
    42    40    43    1
    43     7    10   ar
    44    14    19   ar
    45    22    26    1
    46    24    30   ar
    47    39    40    1
    48     9    44    1
    49    12    45    1
    50    13    46    1
    51    14    47    1
    52    16    48    1
    53    17    49    1
    54    18    50    1
    55    20    51    1
    56    21    52    1
    57    22    53    1
    58    24    54    1
    59    25    55    1
    60    26    56    1
    61    27    57    1
    62    27    58    1
    63    28    59    1
    64    29    60    1
    65    31    61    1
    66    33    62    1
    67    34    63    1
    68    36    64    1
    69    37    65    1
    70    38    66    1
    71    39    67    1
    72    40    68    1
    73    41    69    1
    74    41    70    1
    75    41    71    1
    76    42    72    1
    77    43    73    1
@<TRIPOS>SUBSTRUCTURE
     1 UNL1        1 TEMP              0 ****  ****    0 ROOT


##########                                Name:                  56
##########                DOCK_Rotatable_Bonds:                  16
##########                         Heavy_Atoms:                  43
##########                    Molecular_Weight:             610.525
##########                       Formal_Charge:        -0.000199944
##########                     HBond_Acceptors:                  16
##########                        HBond_Donors:                  10
##########                    Descriptor_Score:           18.913511
##########          Footprint_Similarity_Score:            9.192480
##########                 desc_FPS_vdw_energy:          -42.256847
##########                  desc_FPS_es_energy:           -5.457578
##########              desc_FPS_vdw+es_energy:          -47.714424
##########                  desc_FPS_num_hbond:                   3
##########                    desc_FPS_vdw_fps:            6.845832
##########                     desc_FPS_es_fps:            2.346648
##########                     desc_FPS_hb_fps:            1.732051
##########              desc_FPS_vdw_fp_numres:                 219
##########               desc_FPS_es_fp_numres:                 219
##########               desc_FPS_hb_fp_numres:                 219
##########                 Pharmacophore_Score:            4.666098
##########              desc_FMS_num_match_tot:                   2
##########              desc_FMS_max_match_ref:                  10
##########              desc_FMS_max_match_mol:                  32
##########                 desc_FMS_match_rate:            0.800000
##########                desc_FMS_match_resid:            0.666098
##########    desc_FMS_num_hydrophobic_matched:                   0
##########          desc_FMS_num_donor_matched:                   1
##########       desc_FMS_num_acceptor_matched:                   1
##########       desc_FMS_num_aromatic_matched:                   0
##########       desc_FMS_num_positive_matched:                   0
##########       desc_FMS_num_negative_matched:                   0
##########           desc_FMS_num_ring_matched:                   0
########## Hungarian_Matching_Similarity_Score:            5.199911
##########       desc_HMS_num_unmtchd_hvy_atms:                  30
##########           desc_HMS_num_ref_hvy_atms:                  23
##########        desc_HMS_rmsd_mtchd_hvy_atms:            3.678172
##########               Property_Volume_Score:            0.144977
##########               desc_VOS_geometric_vo:            0.235119
##########                desc_VOS_hvy_atom_vo:            0.225954
##########            desc_VOS_pos_chrg_atm_vo:            0.104318
##########            desc_VOS_neg_chrg_atm_vo:            0.091324
##########         desc_VOS_hydrophobic_atm_vo:            0.132457
##########         desc_VOS_hydrophilic_atm_vo:            0.080691
##########           Internal_energy_repulsive:           11.677629

@<TRIPOS>MOLECULE
56
 73 77 1 0 0
SMALL
GASTEIGER


@<TRIPOS>ATOM
      1 O           9.7712   12.0359   41.3276 O.2     1  UNL1       -0.2830
      2 C          10.4168   12.9905   41.7177 C.ar    1  UNL1        0.2382
      3 C          10.1102   14.4358   41.4384 C.ar    1  UNL1        0.2138
      4 C          11.5778   12.8290   42.6049 C.ar    1  UNL1        0.1092
      5 O           8.8884   14.8129   40.8843 O.3     1  UNL1       -0.4532
      6 C          10.7631   15.3129   41.7736 C.ar    1  UNL1        0.1810
      7 C          12.2308   13.9914   42.9191 C.ar    1  UNL1        0.1465
      8 C          12.0282   11.6038   43.2287 C.ar    1  UNL1        0.1348
      9 C           7.7988   15.4227   41.6411 C.3     1  UNL1        0.2311
     10 O          11.6955   15.1542   42.3916 O.2     1  UNL1       -0.4507
     11 C          10.9031   16.8002   41.4295 C.ar    1  UNL1        0.0247
     12 C          13.4266   13.9599   43.7334 C.ar    1  UNL1        0.0231
     13 O          11.2779   10.4751   43.1127 O.3     1  UNL1       -0.5058
     14 C          13.1479   11.5864   44.0525 C.ar    1  UNL1        0.0223
     15 O           6.9286   14.4138   42.2229 O.3     1  UNL1       -0.3313
     16 C           6.9683   16.3431   40.7339 C.3     1  UNL1        0.1454
     17 C          10.8225   17.8259   42.4086 C.ar    1  UNL1       -0.0057
     18 C          11.1234   17.2087   40.0932 C.ar    1  UNL1       -0.0473
     19 C          13.8640   12.7540   44.2898 C.ar    1  UNL1        0.1239
     20 C           6.2246   13.5410   41.2944 C.3     1  UNL1        0.1144
     21 O           7.8291   17.2994   40.1065 O.3     1  UNL1       -0.3829
     22 C           6.2086   15.5238   39.6744 C.3     1  UNL1        0.1152
     23 C          10.9978   19.1650   42.0630 C.ar    1  UNL1        0.1589
     24 C          11.2749   18.5565   39.7594 C.ar    1  UNL1       -0.0159
     25 O          14.9739   12.6792   45.0829 O.3     1  UNL1       -0.5065
     26 C           5.3623   14.3903   40.3172 C.3     1  UNL1        0.1120
     27 C           5.3816   12.5402   42.1252 C.3     1  UNL1        0.0796
     28 O           5.3734   16.4268   38.9501 O.3     1  UNL1       -0.3864
     29 O          10.9865   20.1449   43.0098 O.3     1  UNL1       -0.5033
     30 C          11.2285   19.5320   40.7484 C.ar    1  UNL1        0.1583
     31 O           4.2007   14.9183   40.9799 O.3     1  UNL1       -0.3865
     32 O           4.9413   13.1474   43.3695 O.3     1  UNL1       -0.3461
     33 O          11.4513   20.8500   40.4828 O.3     1  UNL1       -0.5033
     34 C           3.6585   12.6527   43.8493 C.3     1  UNL1        0.1879
     35 O           2.7007   13.7331   44.0212 O.3     1  UNL1       -0.3431
     36 C           3.8334   11.9270   45.2056 C.3     1  UNL1        0.1341
     37 C           3.0480   14.7470   45.0039 C.3     1  UNL1        0.0873
     38 O           4.7946   10.8755   45.0717 O.3     1  UNL1       -0.3841
     39 C           4.2582   12.9323   46.3043 C.3     1  UNL1        0.1140
     40 C           3.2364   14.0906   46.3971 C.3     1  UNL1        0.1095
     41 C           1.9407   15.8219   45.0075 C.3     1  UNL1       -0.0361
     42 O           4.3417   12.2843   47.5783 O.3     1  UNL1       -0.3864
     43 O           1.9848   13.6044   46.9103 O.3     1  UNL1       -0.3866
     44 H           8.2055   16.0494   42.4462 H       1  UNL1        0.1084
     45 H          13.9801   14.8804   43.9022 H       1  UNL1        0.0691
     46 H          11.5859    9.8541   43.8044 H       1  UNL1        0.2922
     47 H          13.4567   10.6563   44.5255 H       1  UNL1        0.0691
     48 H           6.2468   16.8790   41.3575 H       1  UNL1        0.0683
     49 H          10.6334   17.5896   43.4533 H       1  UNL1        0.0662
     50 H          11.2025   16.4806   39.2920 H       1  UNL1        0.0626
     51 H           6.9708   12.9826   40.7223 H       1  UNL1        0.0647
     52 H           7.6990   18.1605   40.5427 H       1  UNL1        0.2102
     53 H           6.9300   15.0709   38.9878 H       1  UNL1        0.0648
     54 H          11.4542   18.8425   38.7259 H       1  UNL1        0.0655
     55 H          15.5260   11.9113   44.8697 H       1  UNL1        0.2921
     56 H           5.0146   13.7275   39.5192 H       1  UNL1        0.0647
     57 H           5.9807   11.6538   42.3537 H       1  UNL1        0.0587
     58 H           4.5037   12.2302   41.5518 H       1  UNL1        0.0587
     59 H           5.2080   16.0331   38.0853 H       1  UNL1        0.2100
     60 H          10.2603   19.9734   43.6198 H       1  UNL1        0.2923
     61 H           3.7680   14.2183   41.4969 H       1  UNL1        0.2100
     62 H          11.8785   20.8786   39.5908 H       1  UNL1        0.2923
     63 H           3.2555   11.9531   43.0999 H       1  UNL1        0.0937
     64 H           2.8757   11.4799   45.4863 H       1  UNL1        0.0671
     65 H           3.9888   15.2151   44.7001 H       1  UNL1        0.0621
     66 H           5.6431   11.2667   44.8016 H       1  UNL1        0.2101
     67 H           5.2401   13.3417   46.0505 H       1  UNL1        0.0648
     68 H           3.6254   14.8409   47.0921 H       1  UNL1        0.0646
     69 H           0.9654   15.3845   45.2330 H       1  UNL1        0.0255
     70 H           1.8765   16.3025   44.0288 H       1  UNL1        0.0255
     71 H           2.1552   16.5904   45.7535 H       1  UNL1        0.0255
     72 H           4.6533   12.9496   48.2223 H       1  UNL1        0.2100
     73 H           1.6166   12.9555   46.2820 H       1  UNL1        0.2100
@<TRIPOS>BOND
     1     1     2    2
     2     2     3   ar
     3     2     4   ar
     4     3     5    1
     5     3     6   ar
     6     4     7   ar
     7     4     8   ar
     8     5     9    1
     9     6    10   ar
    10     6    11    1
    11     7    12   ar
    12     8    13    1
    13     8    14   ar
    14     9    15    1
    15     9    16    1
    16    11    17   ar
    17    11    18   ar
    18    12    19   ar
    19    15    20    1
    20    16    21    1
    21    16    22    1
    22    17    23   ar
    23    18    24   ar
    24    19    25    1
    25    20    26    1
    26    20    27    1
    27    22    28    1
    28    23    29    1
    29    23    30   ar
    30    26    31    1
    31    27    32    1
    32    30    33    1
    33    32    34    1
    34    34    35    1
    35    34    36    1
    36    35    37    1
    37    36    38    1
    38    36    39    1
    39    37    40    1
    40    37    41    1
    41    39    42    1
    42    40    43    1
    43     7    10   ar
    44    14    19   ar
    45    22    26    1
    46    24    30   ar
    47    39    40    1
    48     9    44    1
    49    12    45    1
    50    13    46    1
    51    14    47    1
    52    16    48    1
    53    17    49    1
    54    18    50    1
    55    20    51    1
    56    21    52    1
    57    22    53    1
    58    24    54    1
    59    25    55    1
    60    26    56    1
    61    27    57    1
    62    27    58    1
    63    28    59    1
    64    29    60    1
    65    31    61    1
    66    33    62    1
    67    34    63    1
    68    36    64    1
    69    37    65    1
    70    38    66    1
    71    39    67    1
    72    40    68    1
    73    41    69    1
    74    41    70    1
    75    41    71    1
    76    42    72    1
    77    43    73    1
@<TRIPOS>SUBSTRUCTURE
     1 UNL1        1 TEMP              0 ****  ****    0 ROOT


##########                                Name:                  56
##########                DOCK_Rotatable_Bonds:                  16
##########                         Heavy_Atoms:                  43
##########                    Molecular_Weight:             610.525
##########                       Formal_Charge:        -0.000199944
##########                     HBond_Acceptors:                  16
##########                        HBond_Donors:                  10
##########                    Descriptor_Score:           19.054827
##########          Footprint_Similarity_Score:            9.270727
##########                 desc_FPS_vdw_energy:          -42.235214
##########                  desc_FPS_es_energy:           -5.332896
##########              desc_FPS_vdw+es_energy:          -47.568111
##########                  desc_FPS_num_hbond:                   3
##########                    desc_FPS_vdw_fps:            6.943199
##########                     desc_FPS_es_fps:            2.327529
##########                     desc_FPS_hb_fps:            1.732051
##########              desc_FPS_vdw_fp_numres:                 219
##########               desc_FPS_es_fp_numres:                 219
##########               desc_FPS_hb_fp_numres:                 219
##########                 Pharmacophore_Score:            4.701272
##########              desc_FMS_num_match_tot:                   2
##########              desc_FMS_max_match_ref:                  10
##########              desc_FMS_max_match_mol:                  32
##########                 desc_FMS_match_rate:            0.800000
##########                desc_FMS_match_resid:            0.701271
##########    desc_FMS_num_hydrophobic_matched:                   0
##########          desc_FMS_num_donor_matched:                   1
##########       desc_FMS_num_acceptor_matched:                   1
##########       desc_FMS_num_aromatic_matched:                   0
##########       desc_FMS_num_positive_matched:                   0
##########       desc_FMS_num_negative_matched:                   0
##########           desc_FMS_num_ring_matched:                   0
########## Hungarian_Matching_Similarity_Score:            5.225689
##########       desc_HMS_num_unmtchd_hvy_atms:                  30
##########           desc_HMS_num_ref_hvy_atms:                  23
##########        desc_HMS_rmsd_mtchd_hvy_atms:            3.703950
##########               Property_Volume_Score:            0.142859
##########               desc_VOS_geometric_vo:            0.232172
##########                desc_VOS_hvy_atom_vo:            0.222863
##########            desc_VOS_pos_chrg_atm_vo:            0.103432
##########            desc_VOS_neg_chrg_atm_vo:            0.089341
##########         desc_VOS_hydrophobic_atm_vo:            0.129975
##########         desc_VOS_hydrophilic_atm_vo:            0.079374
##########           Internal_energy_repulsive:           11.538871

@<TRIPOS>MOLECULE
56
 73 77 1 0 0
SMALL
GASTEIGER


@<TRIPOS>ATOM
      1 O           9.7266   12.0552   41.3395 O.2     1  UNL1       -0.2830
      2 C          10.3888   13.0066   41.7092 C.ar    1  UNL1        0.2382
      3 C          10.0986   14.4516   41.4119 C.ar    1  UNL1        0.2138
      4 C          11.5564   12.8422   42.5871 C.ar    1  UNL1        0.1092
      5 O           8.8764   14.8372   40.8647 O.3     1  UNL1       -0.4532
      6 C          10.7666   15.3246   41.7279 C.ar    1  UNL1        0.1810
      7 C          12.2281   14.0002   42.8778 C.ar    1  UNL1        0.1465
      8 C          11.9968   11.6201   43.2242 C.ar    1  UNL1        0.1348
      9 C           7.7914   15.4451   41.6294 C.3     1  UNL1        0.2311
     10 O          11.7029   15.1623   42.3388 O.2     1  UNL1       -0.4507
     11 C          10.9229   16.8047   41.3607 C.ar    1  UNL1        0.0247
     12 C          13.4316   13.9643   43.6805 C.ar    1  UNL1        0.0231
     13 O          11.2304   10.5001   43.1320 O.3     1  UNL1       -0.5058
     14 C          13.1244   11.5996   44.0370 C.ar    1  UNL1        0.0223
     15 O           6.9294   14.4348   42.2208 O.3     1  UNL1       -0.3313
     16 C           6.9503   16.3610   40.7275 C.3     1  UNL1        0.1454
     17 C          10.8605   17.8459   42.3248 C.ar    1  UNL1       -0.0057
     18 C          11.1404   17.1905   40.0173 C.ar    1  UNL1       -0.0473
     19 C          13.8584   12.7607   44.2500 C.ar    1  UNL1        0.1239
     20 C           6.2202   13.5578   41.3000 C.3     1  UNL1        0.1144
     21 O           7.8028   17.3187   40.0908 O.3     1  UNL1       -0.3829
     22 C           6.1842   15.5371   39.6762 C.3     1  UNL1        0.1152
     23 C          11.0504   19.1774   41.9583 C.ar    1  UNL1        0.1589
     24 C          11.3066   18.5313   39.6625 C.ar    1  UNL1       -0.0159
     25 O          14.9752   12.6825   45.0331 O.3     1  UNL1       -0.5065
     26 C           5.3469   14.4024   40.3285 C.3     1  UNL1        0.1120
     27 C           5.3874   12.5562   42.1401 C.3     1  UNL1        0.0796
     28 O           5.3400   16.4361   38.9572 O.3     1  UNL1       -0.3864
     29 O          11.0566   20.1713   42.8904 O.3     1  UNL1       -0.5033
     30 C          11.2779   19.5219   40.6371 C.ar    1  UNL1        0.1583
     31 O           4.1894   14.9281   41.0000 O.3     1  UNL1       -0.3865
     32 O           4.9551   13.1649   43.3864 O.3     1  UNL1       -0.3461
     33 O          11.5154   20.8329   40.3505 O.3     1  UNL1       -0.5033
     34 C           3.6731   12.6742   43.8726 C.3     1  UNL1        0.1879
     35 O           2.7224   13.7586   44.0578 O.3     1  UNL1       -0.3431
     36 C           3.8538   11.9394   45.2231 C.3     1  UNL1        0.1341
     37 C           3.0822   14.7648   45.0440 C.3     1  UNL1        0.0873
     38 O           4.8083   10.8836   45.0761 O.3     1  UNL1       -0.3841
     39 C           4.2919   12.9359   46.3247 C.3     1  UNL1        0.1140
     40 C           3.2771   14.0990   46.4319 C.3     1  UNL1        0.1095
     41 C           1.9808   15.8455   45.0620 C.3     1  UNL1       -0.0361
     42 O           4.3812   12.2798   47.5942 O.3     1  UNL1       -0.3864
     43 O           2.0267   13.6164   46.9512 O.3     1  UNL1       -0.3866
     44 H           8.2030   16.0748   42.4298 H       1  UNL1        0.1084
     45 H          13.9989   14.8795   43.8304 H       1  UNL1        0.0691
     46 H          11.5107    9.9011   43.8543 H       1  UNL1        0.2922
     47 H          13.4256   10.6723   44.5203 H       1  UNL1        0.0691
     48 H           6.2325   16.8960   41.3561 H       1  UNL1        0.0683
     49 H          10.6746   17.6276   43.3740 H       1  UNL1        0.0662
     50 H          11.2059   16.4497   39.2267 H       1  UNL1        0.0626
     51 H           6.9633   13.0006   40.7228 H       1  UNL1        0.0647
     52 H           7.6674   18.1821   40.5206 H       1  UNL1        0.2102
     53 H           6.9011   15.0850   38.9844 H       1  UNL1        0.0648
     54 H          11.4834   18.7996   38.6239 H       1  UNL1        0.0655
     55 H          15.5286   11.9189   44.8075 H       1  UNL1        0.2921
     56 H           4.9945   13.7369   39.5349 H       1  UNL1        0.0647
     57 H           5.9914   11.6724   42.3660 H       1  UNL1        0.0587
     58 H           4.5060   12.2416   41.5746 H       1  UNL1        0.0587
     59 H           5.1675   16.0395   38.0950 H       1  UNL1        0.2100
     60 H          10.3705   19.9855   43.5412 H       1  UNL1        0.2923
     61 H           3.7729   14.2322   41.5354 H       1  UNL1        0.2100
     62 H          11.9597   20.8413   39.4664 H       1  UNL1        0.2923
     63 H           3.2609   11.9813   43.1219 H       1  UNL1        0.0937
     64 H           2.8958   11.4957   45.5081 H       1  UNL1        0.0671
     65 H           4.0233   15.2297   44.7361 H       1  UNL1        0.0621
     66 H           5.6634   11.2743   44.8267 H       1  UNL1        0.2101
     67 H           5.2742   13.3415   46.0662 H       1  UNL1        0.0648
     68 H           3.6751   14.8430   47.1285 H       1  UNL1        0.0646
     69 H           1.0048   15.4119   45.2920 H       1  UNL1        0.0255
     70 H           1.9121   16.3323   44.0867 H       1  UNL1        0.0255
     71 H           2.2048   16.6083   45.8110 H       1  UNL1        0.0255
     72 H           3.4853   11.9625   47.8205 H       1  UNL1        0.2100
     73 H           1.6569   12.9634   46.3281 H       1  UNL1        0.2100
@<TRIPOS>BOND
     1     1     2    2
     2     2     3   ar
     3     2     4   ar
     4     3     5    1
     5     3     6   ar
     6     4     7   ar
     7     4     8   ar
     8     5     9    1
     9     6    10   ar
    10     6    11    1
    11     7    12   ar
    12     8    13    1
    13     8    14   ar
    14     9    15    1
    15     9    16    1
    16    11    17   ar
    17    11    18   ar
    18    12    19   ar
    19    15    20    1
    20    16    21    1
    21    16    22    1
    22    17    23   ar
    23    18    24   ar
    24    19    25    1
    25    20    26    1
    26    20    27    1
    27    22    28    1
    28    23    29    1
    29    23    30   ar
    30    26    31    1
    31    27    32    1
    32    30    33    1
    33    32    34    1
    34    34    35    1
    35    34    36    1
    36    35    37    1
    37    36    38    1
    38    36    39    1
    39    37    40    1
    40    37    41    1
    41    39    42    1
    42    40    43    1
    43     7    10   ar
    44    14    19   ar
    45    22    26    1
    46    24    30   ar
    47    39    40    1
    48     9    44    1
    49    12    45    1
    50    13    46    1
    51    14    47    1
    52    16    48    1
    53    17    49    1
    54    18    50    1
    55    20    51    1
    56    21    52    1
    57    22    53    1
    58    24    54    1
    59    25    55    1
    60    26    56    1
    61    27    57    1
    62    27    58    1
    63    28    59    1
    64    29    60    1
    65    31    61    1
    66    33    62    1
    67    34    63    1
    68    36    64    1
    69    37    65    1
    70    38    66    1
    71    39    67    1
    72    40    68    1
    73    41    69    1
    74    41    70    1
    75    41    71    1
    76    42    72    1
    77    43    73    1
@<TRIPOS>SUBSTRUCTURE
     1 UNL1        1 TEMP              0 ****  ****    0 ROOT


##########                                Name:                  58
##########                DOCK_Rotatable_Bonds:                   4
##########                         Heavy_Atoms:                  12
##########                    Molecular_Weight:             164.204
##########                       Formal_Charge:        -7.45058e-08
##########                     HBond_Acceptors:                   2
##########                        HBond_Donors:                   1
##########                    Descriptor_Score:           40.450474
##########          Footprint_Similarity_Score:           12.260117
##########                 desc_FPS_vdw_energy:          -25.509142
##########                  desc_FPS_es_energy:           -0.107552
##########              desc_FPS_vdw+es_energy:          -25.616693
##########                  desc_FPS_num_hbond:                   0
##########                    desc_FPS_vdw_fps:           10.215867
##########                     desc_FPS_es_fps:            2.044250
##########                     desc_FPS_hb_fps:            0.000000
##########              desc_FPS_vdw_fp_numres:                 219
##########               desc_FPS_es_fp_numres:                 219
##########               desc_FPS_hb_fp_numres:                 219
##########                 Pharmacophore_Score:           20.000000
##########              desc_FMS_num_match_tot:                   0
##########              desc_FMS_max_match_ref:                  10
##########              desc_FMS_max_match_mol:                   7
##########                 desc_FMS_match_rate:            4.000000
##########                desc_FMS_match_resid:            0.000000
##########    desc_FMS_num_hydrophobic_matched:                   0
##########          desc_FMS_num_donor_matched:                   0
##########       desc_FMS_num_acceptor_matched:                   0
##########       desc_FMS_num_aromatic_matched:                   0
##########       desc_FMS_num_positive_matched:                   0
##########       desc_FMS_num_negative_matched:                   0
##########           desc_FMS_num_ring_matched:                   0
########## Hungarian_Matching_Similarity_Score:            8.190356
##########       desc_HMS_num_unmtchd_hvy_atms:                  15
##########           desc_HMS_num_ref_hvy_atms:                  23
##########        desc_HMS_rmsd_mtchd_hvy_atms:            9.929487
##########               Property_Volume_Score:            0.000000
##########               desc_VOS_geometric_vo:            0.000000
##########                desc_VOS_hvy_atom_vo:            0.000000
##########            desc_VOS_pos_chrg_atm_vo:            0.000000
##########            desc_VOS_neg_chrg_atm_vo:            0.000000
##########         desc_VOS_hydrophobic_atm_vo:            0.000000
##########         desc_VOS_hydrophilic_atm_vo:            0.000000
##########           Internal_energy_repulsive:            5.220466

@<TRIPOS>MOLECULE
58
 24 24 1 0 0
SMALL
GASTEIGER


@<TRIPOS>ATOM
      1 O          23.9609   11.3759   39.8941 O.3     1  UNL1       -0.4915
      2 C          23.2366   10.2918   40.3821 C.ar    1  UNL1        0.1615
      3 C          24.4289   11.5868   38.5413 C.3     1  UNL1        0.0790
      4 C          22.7054   10.1919   41.6805 C.ar    1  UNL1        0.1585
      5 C          23.0291    9.2447   39.4833 C.ar    1  UNL1       -0.0128
      6 O          22.8365   11.1901   42.5965 O.3     1  UNL1       -0.5033
      7 C          22.0001    9.0489   42.0560 C.ar    1  UNL1       -0.0163
      8 C          22.3100    8.1072   39.8541 C.ar    1  UNL1       -0.0400
      9 C          21.8033    8.0107   41.1498 C.ar    1  UNL1       -0.0546
     10 C          22.0743    6.9872   38.8541 C.3     1  UNL1       -0.0096
     11 C          23.0790    7.0183   37.7281 C.2     1  UNL1       -0.0868
     12 C          22.8628    7.6192   36.5491 C.2     1  UNL1       -0.1023
     13 H          24.8506   12.5931   38.4726 H       1  UNL1        0.0660
     14 H          23.5918   11.4990   37.8422 H       1  UNL1        0.0660
     15 H          25.2092   10.8583   38.3047 H       1  UNL1        0.0660
     16 H          23.4334    9.3220   38.4768 H       1  UNL1        0.0658
     17 H          23.3984   11.8755   42.1977 H       1  UNL1        0.2923
     18 H          21.5918    8.9702   43.0605 H       1  UNL1        0.0655
     19 H          21.2459    7.1284   41.4555 H       1  UNL1        0.0622
     20 H          21.0646    7.0714   38.4446 H       1  UNL1        0.0355
     21 H          22.1112    6.0267   39.3745 H       1  UNL1        0.0355
     22 H          24.0231    6.5154   37.9357 H       1  UNL1        0.0570
     23 H          21.9263    8.1275   36.3314 H       1  UNL1        0.0532
     24 H          23.6220    7.6184   35.7710 H       1  UNL1        0.0532
@<TRIPOS>BOND
     1     1     2    1
     2     1     3    1
     3     2     4   ar
     4     2     5   ar
     5     4     6    1
     6     4     7   ar
     7     5     8   ar
     8     7     9   ar
     9     8    10    1
    10    10    11    1
    11    11    12    2
    12     8     9   ar
    13     3    13    1
    14     3    14    1
    15     3    15    1
    16     5    16    1
    17     6    17    1
    18     7    18    1
    19     9    19    1
    20    10    20    1
    21    10    21    1
    22    11    22    1
    23    12    23    1
    24    12    24    1
@<TRIPOS>SUBSTRUCTURE
     1 UNL1        1 TEMP              0 ****  ****    0 ROOT


##########                                Name:                  58
##########                DOCK_Rotatable_Bonds:                   4
##########                         Heavy_Atoms:                  12
##########                    Molecular_Weight:             164.204
##########                       Formal_Charge:        -7.45058e-08
##########                     HBond_Acceptors:                   2
##########                        HBond_Donors:                   1
##########                    Descriptor_Score:           39.130669
##########          Footprint_Similarity_Score:           11.080223
##########                 desc_FPS_vdw_energy:          -22.596558
##########                  desc_FPS_es_energy:           -1.328612
##########              desc_FPS_vdw+es_energy:          -23.925169
##########                  desc_FPS_num_hbond:                   1
##########                    desc_FPS_vdw_fps:            9.100607
##########                     desc_FPS_es_fps:            1.979616
##########                     desc_FPS_hb_fps:            1.000000
##########              desc_FPS_vdw_fp_numres:                 219
##########               desc_FPS_es_fp_numres:                 219
##########               desc_FPS_hb_fp_numres:                 219
##########                 Pharmacophore_Score:           20.000000
##########              desc_FMS_num_match_tot:                   0
##########              desc_FMS_max_match_ref:                  10
##########              desc_FMS_max_match_mol:                   7
##########                 desc_FMS_match_rate:            4.000000
##########                desc_FMS_match_resid:            0.000000
##########    desc_FMS_num_hydrophobic_matched:                   0
##########          desc_FMS_num_donor_matched:                   0
##########       desc_FMS_num_acceptor_matched:                   0
##########       desc_FMS_num_aromatic_matched:                   0
##########       desc_FMS_num_positive_matched:                   0
##########       desc_FMS_num_negative_matched:                   0
##########           desc_FMS_num_ring_matched:                   0
########## Hungarian_Matching_Similarity_Score:            8.050447
##########       desc_HMS_num_unmtchd_hvy_atms:                  15
##########           desc_HMS_num_ref_hvy_atms:                  23
##########        desc_HMS_rmsd_mtchd_hvy_atms:            9.789578
##########               Property_Volume_Score:            0.000000
##########               desc_VOS_geometric_vo:            0.000000
##########                desc_VOS_hvy_atom_vo:            0.000000
##########            desc_VOS_pos_chrg_atm_vo:            0.000000
##########            desc_VOS_neg_chrg_atm_vo:            0.000000
##########         desc_VOS_hydrophobic_atm_vo:            0.000000
##########         desc_VOS_hydrophilic_atm_vo:            0.000000
##########           Internal_energy_repulsive:            2.810646

@<TRIPOS>MOLECULE
58
 24 24 1 0 0
SMALL
GASTEIGER


@<TRIPOS>ATOM
      1 O          21.6347    7.4885   39.2952 O.3     1  UNL1       -0.4915
      2 C          22.0826    8.4914   40.1505 C.ar    1  UNL1        0.1615
      3 C          22.0890    7.2084   37.9504 C.3     1  UNL1        0.0790
      4 C          21.9049    8.5045   41.5456 C.ar    1  UNL1        0.1585
      5 C          22.7680    9.5457   39.5455 C.ar    1  UNL1       -0.0128
      6 O          21.2799    7.4920   42.2066 O.3     1  UNL1       -0.5033
      7 C          22.3955    9.5713   42.2981 C.ar    1  UNL1       -0.0163
      8 C          23.2726   10.6060   40.3003 C.ar    1  UNL1       -0.0400
      9 C          23.0748   10.6178   41.6807 C.ar    1  UNL1       -0.0546
     10 C          24.0369   11.7337   39.6263 C.3     1  UNL1       -0.0096
     11 C          25.3491   11.2584   39.0515 C.2     1  UNL1       -0.0868
     12 C          25.5592   11.0433   37.7448 C.2     1  UNL1       -0.1023
     13 H          21.6216    6.2797   37.6122 H       1  UNL1        0.0660
     14 H          23.1763    7.0868   37.9448 H       1  UNL1        0.0660
     15 H          21.7867    8.0207   37.2837 H       1  UNL1        0.0660
     16 H          22.9122    9.5352   38.4677 H       1  UNL1        0.0658
     17 H          21.2619    6.7255   41.6093 H       1  UNL1        0.2923
     18 H          22.2558    9.5830   43.3761 H       1  UNL1        0.0655
     19 H          23.4569   11.4396   42.2816 H       1  UNL1        0.0622
     20 H          24.2230   12.5308   40.3503 H       1  UNL1        0.0355
     21 H          23.4128   12.1741   38.8444 H       1  UNL1        0.0355
     22 H          26.1442   11.1015   39.7800 H       1  UNL1        0.0570
     23 H          24.7749   11.1998   37.0079 H       1  UNL1        0.0532
     24 H          26.5261   10.7059   37.3798 H       1  UNL1        0.0532
@<TRIPOS>BOND
     1     1     2    1
     2     1     3    1
     3     2     4   ar
     4     2     5   ar
     5     4     6    1
     6     4     7   ar
     7     5     8   ar
     8     7     9   ar
     9     8    10    1
    10    10    11    1
    11    11    12    2
    12     8     9   ar
    13     3    13    1
    14     3    14    1
    15     3    15    1
    16     5    16    1
    17     6    17    1
    18     7    18    1
    19     9    19    1
    20    10    20    1
    21    10    21    1
    22    11    22    1
    23    12    23    1
    24    12    24    1
@<TRIPOS>SUBSTRUCTURE
     1 UNL1        1 TEMP              0 ****  ****    0 ROOT


##########                                Name:                  58
##########                DOCK_Rotatable_Bonds:                   4
##########                         Heavy_Atoms:                  12
##########                    Molecular_Weight:             164.204
##########                       Formal_Charge:        -7.45058e-08
##########                     HBond_Acceptors:                   2
##########                        HBond_Donors:                   1
##########                    Descriptor_Score:           40.632614
##########          Footprint_Similarity_Score:           12.109884
##########                 desc_FPS_vdw_energy:          -23.980499
##########                  desc_FPS_es_energy:           -0.825718
##########              desc_FPS_vdw+es_energy:          -24.806217
##########                  desc_FPS_num_hbond:                   1
##########                    desc_FPS_vdw_fps:            9.613149
##########                     desc_FPS_es_fps:            2.496735
##########                     desc_FPS_hb_fps:            1.000000
##########              desc_FPS_vdw_fp_numres:                 219
##########               desc_FPS_es_fp_numres:                 219
##########               desc_FPS_hb_fp_numres:                 219
##########                 Pharmacophore_Score:           20.000000
##########              desc_FMS_num_match_tot:                   0
##########              desc_FMS_max_match_ref:                  10
##########              desc_FMS_max_match_mol:                   7
##########                 desc_FMS_match_rate:            4.000000
##########                desc_FMS_match_resid:            0.000000
##########    desc_FMS_num_hydrophobic_matched:                   0
##########          desc_FMS_num_donor_matched:                   0
##########       desc_FMS_num_acceptor_matched:                   0
##########       desc_FMS_num_aromatic_matched:                   0
##########       desc_FMS_num_positive_matched:                   0
##########       desc_FMS_num_negative_matched:                   0
##########           desc_FMS_num_ring_matched:                   0
########## Hungarian_Matching_Similarity_Score:            8.522728
##########       desc_HMS_num_unmtchd_hvy_atms:                  15
##########           desc_HMS_num_ref_hvy_atms:                  23
##########        desc_HMS_rmsd_mtchd_hvy_atms:           10.261858
##########               Property_Volume_Score:            0.000000
##########               desc_VOS_geometric_vo:            0.000000
##########                desc_VOS_hvy_atom_vo:            0.000000
##########            desc_VOS_pos_chrg_atm_vo:            0.000000
##########            desc_VOS_neg_chrg_atm_vo:            0.000000
##########         desc_VOS_hydrophobic_atm_vo:            0.000000
##########         desc_VOS_hydrophilic_atm_vo:            0.000000
##########           Internal_energy_repulsive:            1.704960

@<TRIPOS>MOLECULE
58
 24 24 1 0 0
SMALL
GASTEIGER


@<TRIPOS>ATOM
      1 O          21.3746    8.5356   40.9942 O.3     1  UNL1       -0.4915
      2 C          22.4327    8.9071   40.1693 C.ar    1  UNL1        0.1615
      3 C          21.4396    8.1192   42.3784 C.3     1  UNL1        0.0790
      4 C          23.2976    9.9916   40.4013 C.ar    1  UNL1        0.1585
      5 C          22.6303    8.1135   39.0386 C.ar    1  UNL1       -0.0128
      6 O          23.1874   10.7845   41.5022 O.3     1  UNL1       -0.5033
      7 C          24.3216   10.2690   39.4962 C.ar    1  UNL1       -0.0163
      8 C          23.6647    8.3817   38.1405 C.ar    1  UNL1       -0.0400
      9 C          24.5052    9.4704   38.3709 C.ar    1  UNL1       -0.0546
     10 C          23.8787    7.4920   36.9270 C.3     1  UNL1       -0.0096
     11 C          23.4657    8.1778   35.6474 C.2     1  UNL1       -0.0868
     12 C          22.1907    8.3725   35.2809 C.2     1  UNL1       -0.1023
     13 H          20.4197    8.0229   42.7603 H       1  UNL1        0.0660
     14 H          21.9744    8.8712   42.9662 H       1  UNL1        0.0660
     15 H          21.9372    7.1480   42.4470 H       1  UNL1        0.0660
     16 H          21.9668    7.2707   38.8599 H       1  UNL1        0.0658
     17 H          24.0888   11.0158   41.7824 H       1  UNL1        0.2923
     18 H          24.9886   11.1088   39.6739 H       1  UNL1        0.0655
     19 H          25.3120    9.6956   37.6774 H       1  UNL1        0.0622
     20 H          23.3067    6.5687   37.0472 H       1  UNL1        0.0355
     21 H          24.9293    7.1939   36.8804 H       1  UNL1        0.0355
     22 H          24.2876    8.5235   35.0210 H       1  UNL1        0.0570
     23 H          21.3619    8.0355   35.8992 H       1  UNL1        0.0532
     24 H          21.9449    8.8779   34.3503 H       1  UNL1        0.0532
@<TRIPOS>BOND
     1     1     2    1
     2     1     3    1
     3     2     4   ar
     4     2     5   ar
     5     4     6    1
     6     4     7   ar
     7     5     8   ar
     8     7     9   ar
     9     8    10    1
    10    10    11    1
    11    11    12    2
    12     8     9   ar
    13     3    13    1
    14     3    14    1
    15     3    15    1
    16     5    16    1
    17     6    17    1
    18     7    18    1
    19     9    19    1
    20    10    20    1
    21    10    21    1
    22    11    22    1
    23    12    23    1
    24    12    24    1
@<TRIPOS>SUBSTRUCTURE
     1 UNL1        1 TEMP              0 ****  ****    0 ROOT


##########                                Name:                  61
##########                DOCK_Rotatable_Bonds:                   6
##########                         Heavy_Atoms:                  25
##########                    Molecular_Weight:             339.391
##########                       Formal_Charge:         0.000499964
##########                     HBond_Acceptors:                   5
##########                        HBond_Donors:                   0
##########                    Descriptor_Score:           41.270245
##########          Footprint_Similarity_Score:           13.130465
##########                 desc_FPS_vdw_energy:          -36.237061
##########                  desc_FPS_es_energy:           -1.460748
##########              desc_FPS_vdw+es_energy:          -37.697807
##########                  desc_FPS_num_hbond:                   0
##########                    desc_FPS_vdw_fps:           10.851059
##########                     desc_FPS_es_fps:            2.279405
##########                     desc_FPS_hb_fps:            0.000000
##########              desc_FPS_vdw_fp_numres:                 219
##########               desc_FPS_es_fp_numres:                 219
##########               desc_FPS_hb_fp_numres:                 219
##########                 Pharmacophore_Score:           20.000000
##########              desc_FMS_num_match_tot:                   0
##########              desc_FMS_max_match_ref:                  10
##########              desc_FMS_max_match_mol:                   9
##########                 desc_FMS_match_rate:            4.000000
##########                desc_FMS_match_resid:            0.000000
##########    desc_FMS_num_hydrophobic_matched:                   0
##########          desc_FMS_num_donor_matched:                   0
##########       desc_FMS_num_acceptor_matched:                   0
##########       desc_FMS_num_aromatic_matched:                   0
##########       desc_FMS_num_positive_matched:                   0
##########       desc_FMS_num_negative_matched:                   0
##########           desc_FMS_num_ring_matched:                   0
########## Hungarian_Matching_Similarity_Score:            8.178624
##########       desc_HMS_num_unmtchd_hvy_atms:                  14
##########           desc_HMS_num_ref_hvy_atms:                  23
##########        desc_HMS_rmsd_mtchd_hvy_atms:           10.135146
##########               Property_Volume_Score:            0.038841
##########               desc_VOS_geometric_vo:            0.102952
##########                desc_VOS_hvy_atom_vo:            0.063535
##########            desc_VOS_pos_chrg_atm_vo:            0.048924
##########            desc_VOS_neg_chrg_atm_vo:            0.017611
##########         desc_VOS_hydrophobic_atm_vo:            0.000027
##########         desc_VOS_hydrophilic_atm_vo:            0.000000
##########           Internal_energy_repulsive:           16.147223

@<TRIPOS>MOLECULE
61
 46 48 1 0 0
SMALL
GASTEIGER


@<TRIPOS>ATOM
      1 O          22.3909    9.1755   42.4067 O.3     1  UNL1       -0.4914
      2 C          22.7984    9.9114   41.3010 C.ar    1  UNL1        0.1621
      3 C          21.2290    8.3166   42.4631 C.3     1  UNL1        0.0790
      4 C          23.0661    9.2555   40.0832 C.ar    1  UNL1        0.1621
      5 C          22.9769   11.3009   41.3879 C.ar    1  UNL1       -0.0069
      6 O          22.9446    7.8882   39.8575 O.3     1  UNL1       -0.4914
      7 C          23.5067    9.9952   38.9908 C.ar    1  UNL1       -0.0085
      8 C          23.4260   12.0446   40.2865 C.ar    1  UNL1        0.0074
      9 C          22.6493    7.2583   38.5893 C.3     1  UNL1        0.0790
     10 C          23.6809   11.3729   39.0839 C.ar    1  UNL1       -0.0110
     11 C          23.6524   13.4340   40.3305 C.ar    1  UNL1        0.0534
     12 C          24.1271   12.0913   37.9771 C.ar    1  UNL1       -0.0357
     13 N          24.0705   14.1300   39.2444 N.ar    1  UNL1       -0.2589
     14 C          23.6007   14.2720   41.6085 C.3     1  UNL1        0.0155
     15 C          24.2960   13.4658   38.0924 C.ar    1  UNL1        0.0285
     16 C          22.2027   14.2294   42.2239 C.ar    1  UNL1       -0.0379
     17 C          21.0960   14.5355   41.4335 C.ar    1  UNL1       -0.0128
     18 C          22.0196   13.9301   43.5715 C.ar    1  UNL1       -0.0545
     19 C          19.8082   14.6048   41.9825 C.ar    1  UNL1        0.1618
     20 C          20.7420   13.9706   44.1240 C.ar    1  UNL1       -0.0160
     21 O          18.7256   14.9625   41.1845 O.3     1  UNL1       -0.4914
     22 C          19.6346   14.3320   43.3520 C.ar    1  UNL1        0.1615
     23 C          18.4608   14.4082   39.8751 C.3     1  UNL1        0.0790
     24 O          18.4235   14.3910   44.0339 O.3     1  UNL1       -0.4915
     25 C          17.1276   14.1657   43.4329 C.3     1  UNL1        0.0790
     26 H          21.5134    7.2959   42.1933 H       1  UNL1        0.0660
     27 H          20.4485    8.6873   41.7946 H       1  UNL1        0.0660
     28 H          20.8502    8.3278   43.4889 H       1  UNL1        0.0660
     29 H          22.7543   11.8026   42.3215 H       1  UNL1        0.0662
     30 H          23.7236    9.4829   38.0564 H       1  UNL1        0.0661
     31 H          22.6460    6.1742   38.7253 H       1  UNL1        0.0660
     32 H          23.4156    7.5327   37.8591 H       1  UNL1        0.0660
     33 H          21.6648    7.5822   38.2411 H       1  UNL1        0.0660
     34 H          24.3430   11.5918   37.0354 H       1  UNL1        0.0639
     35 H          23.9168   15.2989   41.4232 H       1  UNL1        0.0377
     36 H          24.3154   13.8760   42.3356 H       1  UNL1        0.0377
     37 H          24.6439   14.0655   37.2539 H       1  UNL1        0.0830
     38 H          21.2479   14.7404   40.3805 H       1  UNL1        0.0658
     39 H          22.8684   13.6763   44.1997 H       1  UNL1        0.0622
     40 H          20.6082   13.7455   45.1787 H       1  UNL1        0.0655
     41 H          17.6095   14.9331   39.4337 H       1  UNL1        0.0660
     42 H          18.2220   13.3442   39.9695 H       1  UNL1        0.0660
     43 H          19.3378   14.5407   39.2350 H       1  UNL1        0.0660
     44 H          16.3513   14.4578   44.1427 H       1  UNL1        0.0660
     45 H          17.0164   13.1049   43.1900 H       1  UNL1        0.0660
     46 H          17.0366   14.7677   42.5234 H       1  UNL1        0.0660
@<TRIPOS>BOND
     1     1     2    1
     2     1     3    1
     3     2     4   ar
     4     2     5   ar
     5     4     6    1
     6     4     7   ar
     7     5     8   ar
     8     6     9    1
     9     7    10   ar
    10     8    11   ar
    11    10    12   ar
    12    11    13   ar
    13    11    14    1
    14    12    15   ar
    15    14    16    1
    16    16    17   ar
    17    16    18   ar
    18    17    19   ar
    19    18    20   ar
    20    19    21    1
    21    19    22   ar
    22    21    23    1
    23    22    24    1
    24    24    25    1
    25     8    10   ar
    26    13    15   ar
    27    20    22   ar
    28     3    26    1
    29     3    27    1
    30     3    28    1
    31     5    29    1
    32     7    30    1
    33     9    31    1
    34     9    32    1
    35     9    33    1
    36    12    34    1
    37    14    35    1
    38    14    36    1
    39    15    37    1
    40    17    38    1
    41    18    39    1
    42    20    40    1
    43    23    41    1
    44    23    42    1
    45    23    43    1
    46    25    44    1
    47    25    45    1
    48    25    46    1
@<TRIPOS>SUBSTRUCTURE
     1 UNL1        1 TEMP              0 ****  ****    0 ROOT


##########                                Name:                  61
##########                DOCK_Rotatable_Bonds:                   6
##########                         Heavy_Atoms:                  25
##########                    Molecular_Weight:             339.391
##########                       Formal_Charge:         0.000499964
##########                     HBond_Acceptors:                   5
##########                        HBond_Donors:                   0
##########                    Descriptor_Score:           28.327015
##########          Footprint_Similarity_Score:            7.984568
##########                 desc_FPS_vdw_energy:          -28.193520
##########                  desc_FPS_es_energy:           -2.312750
##########              desc_FPS_vdw+es_energy:          -30.506269
##########                  desc_FPS_num_hbond:                   1
##########                    desc_FPS_vdw_fps:            6.944836
##########                     desc_FPS_es_fps:            1.039732
##########                     desc_FPS_hb_fps:            1.000000
##########              desc_FPS_vdw_fp_numres:                 219
##########               desc_FPS_es_fp_numres:                 219
##########               desc_FPS_hb_fp_numres:                 219
##########                 Pharmacophore_Score:           20.000000
##########              desc_FMS_num_match_tot:                   0
##########              desc_FMS_max_match_ref:                  10
##########              desc_FMS_max_match_mol:                   9
##########                 desc_FMS_match_rate:            4.000000
##########                desc_FMS_match_resid:            0.000000
##########    desc_FMS_num_hydrophobic_matched:                   0
##########          desc_FMS_num_donor_matched:                   0
##########       desc_FMS_num_acceptor_matched:                   0
##########       desc_FMS_num_aromatic_matched:                   0
##########       desc_FMS_num_positive_matched:                   0
##########       desc_FMS_num_negative_matched:                   0
##########           desc_FMS_num_ring_matched:                   0
########## Hungarian_Matching_Similarity_Score:            0.667661
##########       desc_HMS_num_unmtchd_hvy_atms:                  14
##########           desc_HMS_num_ref_hvy_atms:                  23
##########        desc_HMS_rmsd_mtchd_hvy_atms:            2.624183
##########               Property_Volume_Score:            0.325214
##########               desc_VOS_geometric_vo:            0.556848
##########                desc_VOS_hvy_atom_vo:            0.546925
##########            desc_VOS_pos_chrg_atm_vo:            0.208909
##########            desc_VOS_neg_chrg_atm_vo:            0.339131
##########         desc_VOS_hydrophobic_atm_vo:            0.298088
##########         desc_VOS_hydrophilic_atm_vo:            0.001385
##########           Internal_energy_repulsive:           16.153198

@<TRIPOS>MOLECULE
61
 46 48 1 0 0
SMALL
GASTEIGER


@<TRIPOS>ATOM
      1 O           8.3029    9.2489   43.4740 O.3     1  UNL1       -0.4914
      2 C           8.5863   10.6089   43.4843 C.ar    1  UNL1        0.1621
      3 C           9.2804    8.1872   43.3836 C.3     1  UNL1        0.0790
      4 C           7.5326   11.5436   43.5160 C.ar    1  UNL1        0.1621
      5 C           9.9118   11.0677   43.4332 C.ar    1  UNL1       -0.0069
      6 O           6.1771   11.2331   43.5555 O.3     1  UNL1       -0.4914
      7 C           7.8241   12.9035   43.4914 C.ar    1  UNL1       -0.0085
      8 C          10.2038   12.4395   43.4035 C.ar    1  UNL1        0.0074
      9 C           5.1477   12.0008   44.2212 C.3     1  UNL1        0.0790
     10 C           9.1409   13.3513   43.4413 C.ar    1  UNL1       -0.0110
     11 C          11.5132   12.9511   43.3194 C.ar    1  UNL1        0.0534
     12 C           9.4073   14.7182   43.4134 C.ar    1  UNL1       -0.0357
     13 N          11.7665   14.2833   43.3097 N.ar    1  UNL1       -0.2589
     14 C          12.7566   12.0927   43.0835 C.3     1  UNL1        0.0155
     15 C          10.7292   15.1437   43.3616 C.ar    1  UNL1        0.0285
     16 C          13.9940   12.7627   43.6792 C.ar    1  UNL1       -0.0379
     17 C          15.0171   13.1886   42.8338 C.ar    1  UNL1       -0.0128
     18 C          14.1347   12.9174   45.0560 C.ar    1  UNL1       -0.0545
     19 C          16.2102   13.7168   43.3460 C.ar    1  UNL1        0.1618
     20 C          15.3048   13.4640   45.5769 C.ar    1  UNL1       -0.0160
     21 O          17.2380   14.0878   42.4843 O.3     1  UNL1       -0.4914
     22 C          16.3584   13.8411   44.7398 C.ar    1  UNL1        0.1615
     23 C          17.1552   14.0217   41.0419 C.3     1  UNL1        0.0790
     24 O          17.4939   14.3192   45.3858 O.3     1  UNL1       -0.4915
     25 C          18.6860   14.7902   44.7162 C.3     1  UNL1        0.0790
     26 H           9.5730    7.8708   44.3885 H       1  UNL1        0.0660
     27 H          10.1528    8.5200   42.8165 H       1  UNL1        0.0660
     28 H           8.8181    7.3462   42.8594 H       1  UNL1        0.0660
     29 H          10.7187   10.3454   43.4254 H       1  UNL1        0.0662
     30 H           7.0071   13.6211   43.5038 H       1  UNL1        0.0661
     31 H           4.1819   11.5189   44.0512 H       1  UNL1        0.0660
     32 H           5.1273   13.0146   43.8121 H       1  UNL1        0.0660
     33 H           5.3522   12.0323   45.2947 H       1  UNL1        0.0660
     34 H           8.5996   15.4465   43.4302 H       1  UNL1        0.0639
     35 H          12.8972   11.8802   42.0235 H       1  UNL1        0.0377
     36 H          12.6237   11.1168   43.5591 H       1  UNL1        0.0377
     37 H          10.9827   16.2015   43.3368 H       1  UNL1        0.0830
     38 H          14.8849   13.0877   41.7632 H       1  UNL1        0.0658
     39 H          13.3425   12.6036   45.7295 H       1  UNL1        0.0622
     40 H          15.4114   13.5725   46.6529 H       1  UNL1        0.0655
     41 H          18.1303   14.2773   40.6190 H       1  UNL1        0.0660
     42 H          16.4064   14.7358   40.6852 H       1  UNL1        0.0660
     43 H          16.8832   13.0078   40.7348 H       1  UNL1        0.0660
     44 H          19.4785   14.9250   45.4548 H       1  UNL1        0.0660
     45 H          18.4779   15.7473   44.2287 H       1  UNL1        0.0660
     46 H          19.0023   14.0536   43.9710 H       1  UNL1        0.0660
@<TRIPOS>BOND
     1     1     2    1
     2     1     3    1
     3     2     4   ar
     4     2     5   ar
     5     4     6    1
     6     4     7   ar
     7     5     8   ar
     8     6     9    1
     9     7    10   ar
    10     8    11   ar
    11    10    12   ar
    12    11    13   ar
    13    11    14    1
    14    12    15   ar
    15    14    16    1
    16    16    17   ar
    17    16    18   ar
    18    17    19   ar
    19    18    20   ar
    20    19    21    1
    21    19    22   ar
    22    21    23    1
    23    22    24    1
    24    24    25    1
    25     8    10   ar
    26    13    15   ar
    27    20    22   ar
    28     3    26    1
    29     3    27    1
    30     3    28    1
    31     5    29    1
    32     7    30    1
    33     9    31    1
    34     9    32    1
    35     9    33    1
    36    12    34    1
    37    14    35    1
    38    14    36    1
    39    15    37    1
    40    17    38    1
    41    18    39    1
    42    20    40    1
    43    23    41    1
    44    23    42    1
    45    23    43    1
    46    25    44    1
    47    25    45    1
    48    25    46    1
@<TRIPOS>SUBSTRUCTURE
     1 UNL1        1 TEMP              0 ****  ****    0 ROOT


##########                                Name:                  61
##########                DOCK_Rotatable_Bonds:                   6
##########                         Heavy_Atoms:                  25
##########                    Molecular_Weight:             339.391
##########                       Formal_Charge:         0.000499964
##########                     HBond_Acceptors:                   5
##########                        HBond_Donors:                   0
##########                    Descriptor_Score:           26.950249
##########          Footprint_Similarity_Score:            6.284804
##########                 desc_FPS_vdw_energy:          -34.183979
##########                  desc_FPS_es_energy:           -3.397837
##########              desc_FPS_vdw+es_energy:          -37.581818
##########                  desc_FPS_num_hbond:                   2
##########                    desc_FPS_vdw_fps:            4.743691
##########                     desc_FPS_es_fps:            1.541113
##########                     desc_FPS_hb_fps:            1.414214
##########              desc_FPS_vdw_fp_numres:                 219
##########               desc_FPS_es_fp_numres:                 219
##########               desc_FPS_hb_fp_numres:                 219
##########                 Pharmacophore_Score:           20.000000
##########              desc_FMS_num_match_tot:                   0
##########              desc_FMS_max_match_ref:                  10
##########              desc_FMS_max_match_mol:                   9
##########                 desc_FMS_match_rate:            4.000000
##########                desc_FMS_match_resid:            0.000000
##########    desc_FMS_num_hydrophobic_matched:                   0
##########          desc_FMS_num_donor_matched:                   0
##########       desc_FMS_num_acceptor_matched:                   0
##########       desc_FMS_num_aromatic_matched:                   0
##########       desc_FMS_num_positive_matched:                   0
##########       desc_FMS_num_negative_matched:                   0
##########           desc_FMS_num_ring_matched:                   0
########## Hungarian_Matching_Similarity_Score:            0.943572
##########       desc_HMS_num_unmtchd_hvy_atms:                  14
##########           desc_HMS_num_ref_hvy_atms:                  23
##########        desc_HMS_rmsd_mtchd_hvy_atms:            2.900093
##########               Property_Volume_Score:            0.278128
##########               desc_VOS_geometric_vo:            0.461224
##########                desc_VOS_hvy_atom_vo:            0.489801
##########            desc_VOS_pos_chrg_atm_vo:            0.154626
##########            desc_VOS_neg_chrg_atm_vo:            0.270782
##########         desc_VOS_hydrophobic_atm_vo:            0.285214
##########         desc_VOS_hydrophilic_atm_vo:            0.007120
##########           Internal_energy_repulsive:           16.294853

@<TRIPOS>MOLECULE
61
 46 48 1 0 0
SMALL
GASTEIGER


@<TRIPOS>ATOM
      1 O           9.3146   14.4161   41.1598 O.3     1  UNL1       -0.4914
      2 C          10.1815   13.5336   41.7921 C.ar    1  UNL1        0.1621
      3 C           9.6245   15.7794   40.7908 C.3     1  UNL1        0.0790
      4 C           9.6924   12.3130   42.2980 C.ar    1  UNL1        0.1621
      5 C          11.5373   13.8547   41.9617 C.ar    1  UNL1       -0.0069
      6 O           8.3757   11.8721   42.2130 O.3     1  UNL1       -0.4914
      7 C          10.5599   11.4506   42.9600 C.ar    1  UNL1       -0.0085
      8 C          12.4098   12.9860   42.6339 C.ar    1  UNL1        0.0074
      9 C           7.2498   12.6431   41.7332 C.3     1  UNL1        0.0790
     10 C          11.9033   11.7753   43.1239 C.ar    1  UNL1       -0.0110
     11 C          13.7696   13.2752   42.8591 C.ar    1  UNL1        0.0534
     12 C          12.7516   10.8970   43.7942 C.ar    1  UNL1       -0.0357
     13 N          14.5940   12.4081   43.4975 N.ar    1  UNL1       -0.2589
     14 C          14.4223   14.6240   42.5539 C.3     1  UNL1        0.0155
     15 C          14.0891   11.2416   43.9484 C.ar    1  UNL1        0.0285
     16 C          15.7994   14.7161   43.2096 C.ar    1  UNL1       -0.0379
     17 C          16.9423   14.5320   42.4331 C.ar    1  UNL1       -0.0128
     18 C          15.9302   14.9398   44.5778 C.ar    1  UNL1       -0.0545
     19 C          18.2184   14.5100   43.0125 C.ar    1  UNL1        0.1618
     20 C          17.1942   14.9453   45.1623 C.ar    1  UNL1       -0.0160
     21 O          19.3408   14.2735   42.2245 O.3     1  UNL1       -0.4914
     22 C          18.3410   14.7052   44.4006 C.ar    1  UNL1        0.1615
     23 C          19.4217   14.5729   40.8118 C.3     1  UNL1        0.0790
     24 O          19.5366   14.6799   45.1113 O.3     1  UNL1       -0.4915
     25 C          20.8127   14.2769   44.5631 C.3     1  UNL1        0.0790
     26 H          10.0081   15.8047   39.7672 H       1  UNL1        0.0660
     27 H          10.3528   16.2056   41.4845 H       1  UNL1        0.0660
     28 H           8.7010   16.3624   40.8458 H       1  UNL1        0.0660
     29 H          11.9119   14.7868   41.5567 H       1  UNL1        0.0662
     30 H          10.1752   10.5152   43.3594 H       1  UNL1        0.0661
     31 H           6.3548   12.0169   41.7616 H       1  UNL1        0.0660
     32 H           7.4392   12.9635   40.7051 H       1  UNL1        0.0660
     33 H           7.1024   13.5140   42.3776 H       1  UNL1        0.0660
     34 H          12.3806    9.9560   44.1943 H       1  UNL1        0.0639
     35 H          13.7844   15.4527   42.8625 H       1  UNL1        0.0377
     36 H          14.5411   14.7373   41.4726 H       1  UNL1        0.0377
     37 H          14.7862   10.5862   44.4664 H       1  UNL1        0.0830
     38 H          16.8294   14.3856   41.3656 H       1  UNL1        0.0658
     39 H          15.0519   15.0984   45.1966 H       1  UNL1        0.0622
     40 H          17.2877   15.1108   46.2323 H       1  UNL1        0.0655
     41 H          20.3730   14.1990   40.4243 H       1  UNL1        0.0660
     42 H          19.3700   15.6561   40.6637 H       1  UNL1        0.0660
     43 H          18.5991   14.0823   40.2837 H       1  UNL1        0.0660
     44 H          21.5319   14.1717   45.3776 H       1  UNL1        0.0660
     45 H          21.1670   15.0387   43.8625 H       1  UNL1        0.0660
     46 H          20.7026   13.3182   44.0466 H       1  UNL1        0.0660
@<TRIPOS>BOND
     1     1     2    1
     2     1     3    1
     3     2     4   ar
     4     2     5   ar
     5     4     6    1
     6     4     7   ar
     7     5     8   ar
     8     6     9    1
     9     7    10   ar
    10     8    11   ar
    11    10    12   ar
    12    11    13   ar
    13    11    14    1
    14    12    15   ar
    15    14    16    1
    16    16    17   ar
    17    16    18   ar
    18    17    19   ar
    19    18    20   ar
    20    19    21    1
    21    19    22   ar
    22    21    23    1
    23    22    24    1
    24    24    25    1
    25     8    10   ar
    26    13    15   ar
    27    20    22   ar
    28     3    26    1
    29     3    27    1
    30     3    28    1
    31     5    29    1
    32     7    30    1
    33     9    31    1
    34     9    32    1
    35     9    33    1
    36    12    34    1
    37    14    35    1
    38    14    36    1
    39    15    37    1
    40    17    38    1
    41    18    39    1
    42    20    40    1
    43    23    41    1
    44    23    42    1
    45    23    43    1
    46    25    44    1
    47    25    45    1
    48    25    46    1
@<TRIPOS>SUBSTRUCTURE
     1 UNL1        1 TEMP              0 ****  ****    0 ROOT


##########                                Name:                  64
##########                DOCK_Rotatable_Bonds:                   4
##########                         Heavy_Atoms:                  21
##########                    Molecular_Weight:             284.225
##########                       Formal_Charge:         9.99868e-05
##########                     HBond_Acceptors:                   6
##########                        HBond_Donors:                   3
##########                    Descriptor_Score:           41.284431
##########          Footprint_Similarity_Score:           13.074756
##########                 desc_FPS_vdw_energy:          -30.081678
##########                  desc_FPS_es_energy:           -2.117881
##########              desc_FPS_vdw+es_energy:          -32.199558
##########                  desc_FPS_num_hbond:                   0
##########                    desc_FPS_vdw_fps:           10.875605
##########                     desc_FPS_es_fps:            2.199150
##########                     desc_FPS_hb_fps:            0.000000
##########              desc_FPS_vdw_fp_numres:                 219
##########               desc_FPS_es_fp_numres:                 219
##########               desc_FPS_hb_fp_numres:                 219
##########                 Pharmacophore_Score:           20.000000
##########              desc_FMS_num_match_tot:                   0
##########              desc_FMS_max_match_ref:                  10
##########              desc_FMS_max_match_mol:                  12
##########                 desc_FMS_match_rate:            4.000000
##########                desc_FMS_match_resid:            0.000000
##########    desc_FMS_num_hydrophobic_matched:                   0
##########          desc_FMS_num_donor_matched:                   0
##########       desc_FMS_num_acceptor_matched:                   0
##########       desc_FMS_num_aromatic_matched:                   0
##########       desc_FMS_num_positive_matched:                   0
##########       desc_FMS_num_negative_matched:                   0
##########           desc_FMS_num_ring_matched:                   0
########## Hungarian_Matching_Similarity_Score:            8.209674
##########       desc_HMS_num_unmtchd_hvy_atms:                  10
##########           desc_HMS_num_ref_hvy_atms:                  23
##########        desc_HMS_rmsd_mtchd_hvy_atms:           11.035761
##########               Property_Volume_Score:            0.000000
##########               desc_VOS_geometric_vo:            0.000000
##########                desc_VOS_hvy_atom_vo:            0.000000
##########            desc_VOS_pos_chrg_atm_vo:            0.000000
##########            desc_VOS_neg_chrg_atm_vo:            0.000000
##########         desc_VOS_hydrophobic_atm_vo:            0.000000
##########         desc_VOS_hydrophilic_atm_vo:            0.000000
##########           Internal_energy_repulsive:           11.802821

@<TRIPOS>MOLECULE
64
 29 31 1 0 0
SMALL
GASTEIGER


@<TRIPOS>ATOM
      1 O          24.0352   11.4817   38.2370 O.2     1  UNL1       -0.2864
      2 C          23.5656   10.9794   39.2419 C.2     1  UNL1        0.2015
      3 C          23.4498   11.7787   40.5167 C.ar    1  UNL1        0.0746
      4 C          23.0719    9.5543   39.2209 C.ar    1  UNL1        0.0745
      5 C          23.8528   13.1270   40.5785 C.ar    1  UNL1        0.1291
      6 C          22.9254   11.1824   41.6683 C.ar    1  UNL1        0.0374
      7 C          23.1209    8.7798   38.0446 C.ar    1  UNL1        0.1283
      8 C          22.5440    8.9803   40.3855 C.ar    1  UNL1        0.0366
      9 O          24.4076   13.7493   39.4902 O.3     1  UNL1       -0.5060
     10 C          23.6940   13.8661   41.7585 C.ar    1  UNL1       -0.0055
     11 C          22.4615    9.7586   41.6611 C.2     1  UNL1        0.1948
     12 C          22.8175   11.9202   42.8512 C.ar    1  UNL1       -0.0360
     13 O          23.6185    9.2735   36.8728 O.3     1  UNL1       -0.5060
     14 C          22.6456    7.4704   38.0375 C.ar    1  UNL1       -0.0194
     15 C          22.0767    7.6613   40.3643 C.ar    1  UNL1       -0.0500
     16 C          23.1753   13.2676   42.9125 C.ar    1  UNL1        0.0630
     17 O          22.0058    9.2500   42.6675 O.2     1  UNL1       -0.2866
     18 C          22.1237    6.9101   39.1958 C.ar    1  UNL1       -0.0576
     19 C          23.0024   13.9917   44.2288 C.2     1  UNL1        0.3369
     20 O          22.1112   13.7198   45.0069 O.2     1  UNL1       -0.2451
     21 O          23.8366   14.9590   44.5173 O.3     1  UNL1       -0.4771
     22 H          23.6870   14.1967   38.9599 H       1  UNL1        0.2922
     23 H          24.0083   14.9068   41.7764 H       1  UNL1        0.0662
     24 H          22.4187   11.4405   43.7422 H       1  UNL1        0.0633
     25 H          23.8172   10.2331   37.0033 H       1  UNL1        0.2922
     26 H          22.6805    6.8832   37.1225 H       1  UNL1        0.0654
     27 H          21.6629    7.2072   41.2622 H       1  UNL1        0.0625
     28 H          21.7510    5.8887   39.1876 H       1  UNL1        0.0619
     29 H          24.5986   14.9325   43.9248 H       1  UNL1        0.2954
@<TRIPOS>BOND
     1     1     2    2
     2     2     3    1
     3     2     4    1
     4     3     5   ar
     5     3     6   ar
     6     4     7   ar
     7     4     8   ar
     8     5     9    1
     9     5    10   ar
    10     6    11    1
    11     6    12   ar
    12     7    13    1
    13     7    14   ar
    14     8    15   ar
    15    10    16   ar
    16    11    17    2
    17    14    18   ar
    18    16    19    1
    19    19    20    2
    20    19    21    1
    21     8    11    1
    22    12    16   ar
    23    15    18   ar
    24     9    22    1
    25    10    23    1
    26    12    24    1
    27    13    25    1
    28    14    26    1
    29    15    27    1
    30    18    28    1
    31    21    29    1
@<TRIPOS>SUBSTRUCTURE
     1 UNL1        1 TEMP              0 ****  ****    0 ROOT


##########                                Name:                  64
##########                DOCK_Rotatable_Bonds:                   4
##########                         Heavy_Atoms:                  21
##########                    Molecular_Weight:             284.225
##########                       Formal_Charge:         9.99868e-05
##########                     HBond_Acceptors:                   6
##########                        HBond_Donors:                   3
##########                    Descriptor_Score:           40.907249
##########          Footprint_Similarity_Score:           12.884310
##########                 desc_FPS_vdw_energy:          -28.325102
##########                  desc_FPS_es_energy:           -2.539520
##########              desc_FPS_vdw+es_energy:          -30.864622
##########                  desc_FPS_num_hbond:                   0
##########                    desc_FPS_vdw_fps:           10.421829
##########                     desc_FPS_es_fps:            2.462480
##########                     desc_FPS_hb_fps:            0.000000
##########              desc_FPS_vdw_fp_numres:                 219
##########               desc_FPS_es_fp_numres:                 219
##########               desc_FPS_hb_fp_numres:                 219
##########                 Pharmacophore_Score:           20.000000
##########              desc_FMS_num_match_tot:                   0
##########              desc_FMS_max_match_ref:                  10
##########              desc_FMS_max_match_mol:                  12
##########                 desc_FMS_match_rate:            4.000000
##########                desc_FMS_match_resid:            0.000000
##########    desc_FMS_num_hydrophobic_matched:                   0
##########          desc_FMS_num_donor_matched:                   0
##########       desc_FMS_num_acceptor_matched:                   0
##########       desc_FMS_num_aromatic_matched:                   0
##########       desc_FMS_num_positive_matched:                   0
##########       desc_FMS_num_negative_matched:                   0
##########           desc_FMS_num_ring_matched:                   0
########## Hungarian_Matching_Similarity_Score:            8.022941
##########       desc_HMS_num_unmtchd_hvy_atms:                  10
##########           desc_HMS_num_ref_hvy_atms:                  23
##########        desc_HMS_rmsd_mtchd_hvy_atms:           10.849027
##########               Property_Volume_Score:            0.000000
##########               desc_VOS_geometric_vo:            0.000000
##########                desc_VOS_hvy_atom_vo:            0.000000
##########            desc_VOS_pos_chrg_atm_vo:            0.000000
##########            desc_VOS_neg_chrg_atm_vo:            0.000000
##########         desc_VOS_hydrophobic_atm_vo:            0.000000
##########         desc_VOS_hydrophilic_atm_vo:            0.000000
##########           Internal_energy_repulsive:           12.834998

@<TRIPOS>MOLECULE
64
 29 31 1 0 0
SMALL
GASTEIGER


@<TRIPOS>ATOM
      1 O          22.4678   10.2402   43.0546 O.2     1  UNL1       -0.2864
      2 C          22.8122   10.7703   42.0139 C.2     1  UNL1        0.2015
      3 C          22.8281    9.9883   40.7233 C.ar    1  UNL1        0.0746
      4 C          23.2081   12.2256   41.9960 C.ar    1  UNL1        0.0745
      5 C          22.4239    8.6398   40.6755 C.ar    1  UNL1        0.1291
      6 C          23.2439   10.6057   39.5390 C.ar    1  UNL1        0.0374
      7 C          23.1709   13.0089   43.1668 C.ar    1  UNL1        0.1283
      8 C          23.6148   12.8246   40.7958 C.ar    1  UNL1        0.0366
      9 O          22.0428    7.9756   41.8126 O.3     1  UNL1       -0.5060
     10 C          22.4012    7.9440   39.4592 C.ar    1  UNL1       -0.0055
     11 C          23.6668   12.0422   39.5211 C.2     1  UNL1        0.1948
     12 C          23.2604    9.8835   38.3417 C.ar    1  UNL1       -0.0360
     13 O          22.7822   12.4942   44.3704 O.3     1  UNL1       -0.5060
     14 C          23.5239   14.3560   43.1303 C.ar    1  UNL1       -0.0194
     15 C          23.9730   14.1773   40.7765 C.ar    1  UNL1       -0.0500
     16 C          22.8234    8.5600   38.2754 C.ar    1  UNL1        0.0630
     17 O          24.0252   12.5700   38.4856 O.2     1  UNL1       -0.2866
     18 C          23.9249   14.9411   41.9367 C.ar    1  UNL1       -0.0576
     19 C          22.8553    7.8654   36.9325 C.2     1  UNL1        0.3369
     20 O          22.6077    6.6837   36.8070 O.2     1  UNL1       -0.2451
     21 O          23.1850    8.5699   35.8791 O.3     1  UNL1       -0.4771
     22 H          21.7641    7.0444   41.5761 H       1  UNL1        0.2922
     23 H          22.0793    6.9056   39.4505 H       1  UNL1        0.0662
     24 H          23.5971   10.3729   37.4305 H       1  UNL1        0.0633
     25 H          22.5720   11.5367   44.2416 H       1  UNL1        0.2922
     26 H          23.4844   14.9543   44.0378 H       1  UNL1        0.0654
     27 H          24.2877   14.6523   39.8497 H       1  UNL1        0.0625
     28 H          24.1977   15.9934   41.9097 H       1  UNL1        0.0619
     29 H          23.3465    9.4889   36.1273 H       1  UNL1        0.2954
@<TRIPOS>BOND
     1     1     2    2
     2     2     3    1
     3     2     4    1
     4     3     5   ar
     5     3     6   ar
     6     4     7   ar
     7     4     8   ar
     8     5     9    1
     9     5    10   ar
    10     6    11    1
    11     6    12   ar
    12     7    13    1
    13     7    14   ar
    14     8    15   ar
    15    10    16   ar
    16    11    17    2
    17    14    18   ar
    18    16    19    1
    19    19    20    2
    20    19    21    1
    21     8    11    1
    22    12    16   ar
    23    15    18   ar
    24     9    22    1
    25    10    23    1
    26    12    24    1
    27    13    25    1
    28    14    26    1
    29    15    27    1
    30    18    28    1
    31    21    29    1
@<TRIPOS>SUBSTRUCTURE
     1 UNL1        1 TEMP              0 ****  ****    0 ROOT


##########                                Name:                  64
##########                DOCK_Rotatable_Bonds:                   4
##########                         Heavy_Atoms:                  21
##########                    Molecular_Weight:             284.225
##########                       Formal_Charge:         9.99868e-05
##########                     HBond_Acceptors:                   6
##########                        HBond_Donors:                   3
##########                    Descriptor_Score:           41.255211
##########          Footprint_Similarity_Score:           13.242392
##########                 desc_FPS_vdw_energy:          -28.286800
##########                  desc_FPS_es_energy:           -2.332922
##########              desc_FPS_vdw+es_energy:          -30.619722
##########                  desc_FPS_num_hbond:                   1
##########                    desc_FPS_vdw_fps:           10.773853
##########                     desc_FPS_es_fps:            2.468539
##########                     desc_FPS_hb_fps:            1.000000
##########              desc_FPS_vdw_fp_numres:                 219
##########               desc_FPS_es_fp_numres:                 219
##########               desc_FPS_hb_fp_numres:                 219
##########                 Pharmacophore_Score:           20.000000
##########              desc_FMS_num_match_tot:                   0
##########              desc_FMS_max_match_ref:                  10
##########              desc_FMS_max_match_mol:                  12
##########                 desc_FMS_match_rate:            4.000000
##########                desc_FMS_match_resid:            0.000000
##########    desc_FMS_num_hydrophobic_matched:                   0
##########          desc_FMS_num_donor_matched:                   0
##########       desc_FMS_num_acceptor_matched:                   0
##########       desc_FMS_num_aromatic_matched:                   0
##########       desc_FMS_num_positive_matched:                   0
##########       desc_FMS_num_negative_matched:                   0
##########           desc_FMS_num_ring_matched:                   0
########## Hungarian_Matching_Similarity_Score:            8.012819
##########       desc_HMS_num_unmtchd_hvy_atms:                  10
##########           desc_HMS_num_ref_hvy_atms:                  23
##########        desc_HMS_rmsd_mtchd_hvy_atms:           10.838907
##########               Property_Volume_Score:            0.000000
##########               desc_VOS_geometric_vo:            0.000000
##########                desc_VOS_hvy_atom_vo:            0.000000
##########            desc_VOS_pos_chrg_atm_vo:            0.000000
##########            desc_VOS_neg_chrg_atm_vo:            0.000000
##########         desc_VOS_hydrophobic_atm_vo:            0.000000
##########         desc_VOS_hydrophilic_atm_vo:            0.000000
##########           Internal_energy_repulsive:           12.769713

@<TRIPOS>MOLECULE
64
 29 31 1 0 0
SMALL
GASTEIGER


@<TRIPOS>ATOM
      1 O          22.4439   10.3948   43.0665 O.2     1  UNL1       -0.2864
      2 C          22.8097   10.8974   42.0195 C.2     1  UNL1        0.2015
      3 C          22.8407   10.0848   40.7481 C.ar    1  UNL1        0.0746
      4 C          23.2174   12.3489   41.9737 C.ar    1  UNL1        0.0745
      5 C          22.4267    8.7386   40.7256 C.ar    1  UNL1        0.1291
      6 C          23.2810   10.6708   39.5567 C.ar    1  UNL1        0.0374
      7 C          23.1671   13.1600   43.1249 C.ar    1  UNL1        0.1283
      8 C          23.6487   12.9160   40.7667 C.ar    1  UNL1        0.0366
      9 O          22.0216    8.1046   41.8715 O.3     1  UNL1       -0.5060
     10 C          22.4187    8.0143   39.5259 C.ar    1  UNL1       -0.0055
     11 C          23.7155   12.1032   39.5119 C.2     1  UNL1        0.1948
     12 C          23.3116    9.9202   38.3773 C.ar    1  UNL1       -0.0360
     13 O          22.7545   12.6771   44.3337 O.3     1  UNL1       -0.5060
     14 C          23.5313   14.5032   43.0625 C.ar    1  UNL1       -0.0194
     15 C          24.0178   14.2652   40.7214 C.ar    1  UNL1       -0.0500
     16 C          22.8652    8.5988   38.3350 C.ar    1  UNL1        0.0630
     17 O          24.0952   12.6035   38.4704 O.2     1  UNL1       -0.2866
     18 C          23.9566   15.0567   41.8622 C.ar    1  UNL1       -0.0576
     19 C          22.9138    7.8722   37.0097 C.2     1  UNL1        0.3369
     20 O          22.7203    6.6774   36.9170 O.2     1  UNL1       -0.2451
     21 O          23.1979    8.5640   35.9347 O.3     1  UNL1       -0.4771
     22 H          21.7910    7.1540   41.6618 H       1  UNL1        0.2922
     23 H          22.0887    6.9785   39.5363 H       1  UNL1        0.0662
     24 H          23.6672   10.3852   37.4606 H       1  UNL1        0.0633
     25 H          22.4662   11.7397   44.2078 H       1  UNL1        0.2922
     26 H          23.4815   15.1232   43.9548 H       1  UNL1        0.0654
     27 H          24.3515   14.7156   39.7890 H       1  UNL1        0.0625
     28 H          24.2382   16.1059   41.8149 H       1  UNL1        0.0619
     29 H          23.3326    9.4932   36.1598 H       1  UNL1        0.2954
@<TRIPOS>BOND
     1     1     2    2
     2     2     3    1
     3     2     4    1
     4     3     5   ar
     5     3     6   ar
     6     4     7   ar
     7     4     8   ar
     8     5     9    1
     9     5    10   ar
    10     6    11    1
    11     6    12   ar
    12     7    13    1
    13     7    14   ar
    14     8    15   ar
    15    10    16   ar
    16    11    17    2
    17    14    18   ar
    18    16    19    1
    19    19    20    2
    20    19    21    1
    21     8    11    1
    22    12    16   ar
    23    15    18   ar
    24     9    22    1
    25    10    23    1
    26    12    24    1
    27    13    25    1
    28    14    26    1
    29    15    27    1
    30    18    28    1
    31    21    29    1
@<TRIPOS>SUBSTRUCTURE
     1 UNL1        1 TEMP              0 ****  ****    0 ROOT


##########                                Name:                  65
##########                DOCK_Rotatable_Bonds:                  10
##########                         Heavy_Atoms:                  30
##########                    Molecular_Weight:               418.4
##########                       Formal_Charge:         0.000299811
##########                     HBond_Acceptors:                   9
##########                        HBond_Donors:                   7
##########                    Descriptor_Score:           32.706310
##########          Footprint_Similarity_Score:            9.692684
##########                 desc_FPS_vdw_energy:          -31.279406
##########                  desc_FPS_es_energy:           -2.990089
##########              desc_FPS_vdw+es_energy:          -34.269493
##########                  desc_FPS_num_hbond:                   3
##########                    desc_FPS_vdw_fps:            7.101535
##########                     desc_FPS_es_fps:            2.591149
##########                     desc_FPS_hb_fps:            2.236068
##########              desc_FPS_vdw_fp_numres:                 219
##########               desc_FPS_es_fp_numres:                 219
##########               desc_FPS_hb_fp_numres:                 219
##########                 Pharmacophore_Score:           20.000000
##########              desc_FMS_num_match_tot:                   0
##########              desc_FMS_max_match_ref:                  10
##########              desc_FMS_max_match_mol:                  20
##########                 desc_FMS_match_rate:            4.000000
##########                desc_FMS_match_resid:            0.000000
##########    desc_FMS_num_hydrophobic_matched:                   0
##########          desc_FMS_num_donor_matched:                   0
##########       desc_FMS_num_acceptor_matched:                   0
##########       desc_FMS_num_aromatic_matched:                   0
##########       desc_FMS_num_positive_matched:                   0
##########       desc_FMS_num_negative_matched:                   0
##########           desc_FMS_num_ring_matched:                   0
########## Hungarian_Matching_Similarity_Score:            3.221622
##########       desc_HMS_num_unmtchd_hvy_atms:                  21
##########           desc_HMS_num_ref_hvy_atms:                  23
##########        desc_HMS_rmsd_mtchd_hvy_atms:            3.656404
##########               Property_Volume_Score:            0.207995
##########               desc_VOS_geometric_vo:            0.301007
##########                desc_VOS_hvy_atom_vo:            0.282014
##########            desc_VOS_pos_chrg_atm_vo:            0.091428
##########            desc_VOS_neg_chrg_atm_vo:            0.237957
##########         desc_VOS_hydrophobic_atm_vo:            0.211735
##########         desc_VOS_hydrophilic_atm_vo:            0.123829
##########           Internal_energy_repulsive:           54.575691

@<TRIPOS>MOLECULE
65
 52 55 1 0 0
SMALL
GASTEIGER


@<TRIPOS>ATOM
      1 O          10.1738   10.0328   43.0706 O.2     1  UNL1       -0.2864
      2 C           9.5385   11.0701   43.1269 C.2     1  UNL1        0.2007
      3 C          10.2143   12.4048   43.1090 C.ar    1  UNL1        0.0676
      4 C           8.0572   11.0828   43.3444 C.ar    1  UNL1        0.0676
      5 C          11.6113   12.5148   43.0472 C.ar    1  UNL1        0.1283
      6 C           9.4296   13.5608   43.1693 C.ar    1  UNL1       -0.0227
      7 C           7.3573    9.8932   43.6042 C.ar    1  UNL1        0.1279
      8 C           7.3677   12.3039   43.2983 C.ar    1  UNL1       -0.0231
      9 O          12.3966   11.4068   42.9874 O.3     1  UNL1       -0.5060
     10 C          12.2128   13.7645   42.9569 C.ar    1  UNL1       -0.0141
     11 C          10.0701   14.7963   43.2958 C.ar    1  UNL1       -0.0516
     12 C           8.0194   13.5052   42.7994 C.3     1  UNL1        0.0395
     13 O           8.0162    8.7022   43.6978 O.3     1  UNL1       -0.5060
     14 C           5.9778    9.9156   43.7900 C.ar    1  UNL1       -0.0194
     15 C           5.9801   12.3086   43.5018 C.ar    1  UNL1       -0.0570
     16 C          11.4397   14.9150   43.0624 C.ar    1  UNL1       -0.0184
     17 C           7.4807   14.0837   41.4875 C.3     1  UNL1        0.0983
     18 C           5.2903   11.1232   43.7403 C.ar    1  UNL1       -0.0580
     19 C          12.0297   16.2799   42.7214 C.3     1  UNL1        0.0694
     20 O           6.9061   15.4020   41.7043 O.3     1  UNL1       -0.3649
     21 C           6.5201   13.2342   40.6101 C.3     1  UNL1        0.1104
     22 O          11.7436   17.2438   43.7167 O.3     1  UNL1       -0.3904
     23 C           5.5534   15.4759   42.2271 C.3     1  UNL1        0.1104
     24 O           6.9589   11.8800   40.5865 O.3     1  UNL1       -0.3865
     25 C           5.0241   13.3026   41.0246 C.3     1  UNL1        0.1118
     26 C           4.5606   14.7492   41.2735 C.3     1  UNL1        0.1117
     27 C           5.2240   16.9626   42.4935 C.3     1  UNL1        0.0729
     28 O           4.2188   12.7117   40.0108 O.3     1  UNL1       -0.3865
     29 O           4.4521   15.3911   40.0056 O.3     1  UNL1       -0.3865
     30 O           6.1744   17.5599   43.3821 O.3     1  UNL1       -0.3924
     31 H          13.2427   11.6985   42.5588 H       1  UNL1        0.2922
     32 H          13.2858   13.8321   42.7835 H       1  UNL1        0.0658
     33 H           9.4788   15.7002   43.4019 H       1  UNL1        0.0624
     34 H           7.7077   14.0525   43.7032 H       1  UNL1        0.0424
     35 H           8.9866    8.9009   43.5896 H       1  UNL1        0.2922
     36 H           5.4366    8.9896   43.9712 H       1  UNL1        0.0654
     37 H           5.4181   13.2373   43.4283 H       1  UNL1        0.0621
     38 H           8.3409   14.2676   40.8392 H       1  UNL1        0.0632
     39 H           4.2104   11.1372   43.8669 H       1  UNL1        0.0619
     40 H          11.6558   16.6360   41.7560 H       1  UNL1        0.0607
     41 H          13.1188   16.1889   42.6432 H       1  UNL1        0.0607
     42 H           6.5870   13.6276   39.5911 H       1  UNL1        0.0646
     43 H          10.7808   17.2895   43.7782 H       1  UNL1        0.2098
     44 H           5.5176   14.9721   43.1917 H       1  UNL1        0.0646
     45 H           6.3573   11.4129   39.9850 H       1  UNL1        0.2100
     46 H           4.8240   12.7383   41.9174 H       1  UNL1        0.0647
     47 H           3.5724   14.7336   41.7425 H       1  UNL1        0.0647
     48 H           4.2328   17.0237   42.9520 H       1  UNL1        0.0584
     49 H           5.2005   17.5140   41.5496 H       1  UNL1        0.0584
     50 H           4.3529   13.2794   39.2296 H       1  UNL1        0.2100
     51 H           3.8844   14.8199   39.4690 H       1  UNL1        0.2100
     52 H           5.9315   18.4971   43.5066 H       1  UNL1        0.2095
@<TRIPOS>BOND
     1     1     2    2
     2     2     3    1
     3     2     4    1
     4     3     5   ar
     5     3     6   ar
     6     4     7   ar
     7     4     8   ar
     8     5     9    1
     9     5    10   ar
    10     6    11   ar
    11     6    12    1
    12     7    13    1
    13     7    14   ar
    14     8    15   ar
    15    10    16   ar
    16    12    17    1
    17    14    18   ar
    18    16    19    1
    19    17    20    1
    20    17    21    1
    21    19    22    1
    22    20    23    1
    23    21    24    1
    24    21    25    1
    25    23    26    1
    26    23    27    1
    27    25    28    1
    28    26    29    1
    29    27    30    1
    30     8    12    1
    31    11    16   ar
    32    15    18   ar
    33    25    26    1
    34     9    31    1
    35    10    32    1
    36    11    33    1
    37    12    34    1
    38    13    35    1
    39    14    36    1
    40    15    37    1
    41    17    38    1
    42    18    39    1
    43    19    40    1
    44    19    41    1
    45    21    42    1
    46    22    43    1
    47    23    44    1
    48    24    45    1
    49    25    46    1
    50    26    47    1
    51    27    48    1
    52    27    49    1
    53    28    50    1
    54    29    51    1
    55    30    52    1
@<TRIPOS>SUBSTRUCTURE
     1 UNL1        1 TEMP              0 ****  ****    0 ROOT


##########                                Name:                  65
##########                DOCK_Rotatable_Bonds:                  10
##########                         Heavy_Atoms:                  30
##########                    Molecular_Weight:               418.4
##########                       Formal_Charge:         0.000299811
##########                     HBond_Acceptors:                   9
##########                        HBond_Donors:                   7
##########                    Descriptor_Score:           34.485641
##########          Footprint_Similarity_Score:            9.518569
##########                 desc_FPS_vdw_energy:          -31.309748
##########                  desc_FPS_es_energy:           -3.930197
##########              desc_FPS_vdw+es_energy:          -35.239944
##########                  desc_FPS_num_hbond:                   5
##########                    desc_FPS_vdw_fps:            7.757547
##########                     desc_FPS_es_fps:            1.761023
##########                     desc_FPS_hb_fps:            2.236068
##########              desc_FPS_vdw_fp_numres:                 219
##########               desc_FPS_es_fp_numres:                 219
##########               desc_FPS_hb_fp_numres:                 219
##########                 Pharmacophore_Score:           20.000000
##########              desc_FMS_num_match_tot:                   0
##########              desc_FMS_max_match_ref:                  10
##########              desc_FMS_max_match_mol:                  20
##########                 desc_FMS_match_rate:            4.000000
##########                desc_FMS_match_resid:            0.000000
##########    desc_FMS_num_hydrophobic_matched:                   0
##########          desc_FMS_num_donor_matched:                   0
##########       desc_FMS_num_acceptor_matched:                   0
##########       desc_FMS_num_aromatic_matched:                   0
##########       desc_FMS_num_positive_matched:                   0
##########       desc_FMS_num_negative_matched:                   0
##########           desc_FMS_num_ring_matched:                   0
########## Hungarian_Matching_Similarity_Score:            5.092495
##########       desc_HMS_num_unmtchd_hvy_atms:                  21
##########           desc_HMS_num_ref_hvy_atms:                  23
##########        desc_HMS_rmsd_mtchd_hvy_atms:            5.527278
##########               Property_Volume_Score:            0.125422
##########               desc_VOS_geometric_vo:            0.218968
##########                desc_VOS_hvy_atom_vo:            0.167442
##########            desc_VOS_pos_chrg_atm_vo:            0.084769
##########            desc_VOS_neg_chrg_atm_vo:            0.133875
##########         desc_VOS_hydrophobic_atm_vo:            0.113701
##########         desc_VOS_hydrophilic_atm_vo:            0.033775
##########           Internal_energy_repulsive:           29.541357

@<TRIPOS>MOLECULE
65
 52 55 1 0 0
SMALL
GASTEIGER


@<TRIPOS>ATOM
      1 O           5.1332   10.8581   44.5484 O.2     1  UNL1       -0.2864
      2 C           5.6026   11.9729   44.6880 C.2     1  UNL1        0.2007
      3 C           6.9759   12.3117   44.2004 C.ar    1  UNL1        0.0676
      4 C           4.8954   13.0403   45.4641 C.ar    1  UNL1        0.0676
      5 C           7.7876   11.3508   43.5797 C.ar    1  UNL1        0.1283
      6 C           7.4569   13.6119   44.3840 C.ar    1  UNL1       -0.0227
      7 C           3.7073   12.7587   46.1581 C.ar    1  UNL1        0.1279
      8 C           5.4386   14.3334   45.5037 C.ar    1  UNL1       -0.0231
      9 O           7.3437   10.0802   43.3890 O.3     1  UNL1       -0.5060
     10 C           9.0300   11.7072   43.0686 C.ar    1  UNL1       -0.0141
     11 C           8.7879   13.8835   44.0564 C.ar    1  UNL1       -0.0516
     12 C           6.5231   14.7099   44.6100 C.3     1  UNL1        0.0395
     13 O           3.1878   11.4972   46.1689 O.3     1  UNL1       -0.5060
     14 C           3.0507   13.7631   46.8640 C.ar    1  UNL1       -0.0194
     15 C           4.7705   15.3288   46.2316 C.ar    1  UNL1       -0.0570
     16 C           9.5294   12.9856   43.2895 C.ar    1  UNL1       -0.0184
     17 C           6.1993   15.7590   43.5421 C.3     1  UNL1        0.0983
     18 C           3.5834   15.0469   46.9017 C.ar    1  UNL1       -0.0580
     19 C          10.7626   13.4771   42.5378 C.3     1  UNL1        0.0694
     20 O           5.2611   15.2271   42.5664 O.3     1  UNL1       -0.3649
     21 C           7.3567   16.4905   42.8075 C.3     1  UNL1        0.1104
     22 O          10.8743   12.8832   41.2586 O.3     1  UNL1       -0.3904
     23 C           5.7880   14.3896   41.5037 C.3     1  UNL1        0.1104
     24 O           8.3904   16.8093   43.7332 O.3     1  UNL1       -0.3865
     25 C           7.9474   15.7233   41.5922 C.3     1  UNL1        0.1118
     26 C           6.8465   15.1691   40.6700 C.3     1  UNL1        0.1117
     27 C           4.5938   13.8453   40.6868 C.3     1  UNL1        0.0729
     28 O           8.8013   16.5866   40.8499 O.3     1  UNL1       -0.3865
     29 O           6.2819   16.2704   39.9631 O.3     1  UNL1       -0.3865
     30 O           4.9698   12.7101   39.8998 O.3     1  UNL1       -0.3924
     31 H           6.6934    9.9091   44.1188 H       1  UNL1        0.2922
     32 H           9.5950   10.9857   42.4803 H       1  UNL1        0.0658
     33 H           9.1973   14.8709   44.2446 H       1  UNL1        0.0624
     34 H           7.0999   15.0921   45.4672 H       1  UNL1        0.0424
     35 H           2.2488   11.5754   46.4927 H       1  UNL1        0.2922
     36 H           2.1202   13.5457   47.3837 H       1  UNL1        0.0654
     37 H           5.1496   16.3486   46.2417 H       1  UNL1        0.0621
     38 H           5.6479   16.5626   44.0365 H       1  UNL1        0.0632
     39 H           3.0599   15.8350   47.4377 H       1  UNL1        0.0619
     40 H          11.6740   13.2758   43.1101 H       1  UNL1        0.0607
     41 H          10.6888   14.5617   42.4008 H       1  UNL1        0.0607
     42 H           6.9474   17.4299   42.4232 H       1  UNL1        0.0646
     43 H          11.7638   13.0886   40.9433 H       1  UNL1        0.2098
     44 H           6.2823   13.5255   41.9448 H       1  UNL1        0.0646
     45 H           9.0797   17.2617   43.2212 H       1  UNL1        0.2100
     46 H           8.5651   14.8971   41.8949 H       1  UNL1        0.0647
     47 H           7.2964   14.4834   39.9461 H       1  UNL1        0.0647
     48 H           4.2425   14.6336   40.0147 H       1  UNL1        0.0584
     49 H           3.7743   13.5765   41.3589 H       1  UNL1        0.0584
     50 H           9.3238   15.9878   40.2851 H       1  UNL1        0.2100
     51 H           5.8515   16.8206   40.6330 H       1  UNL1        0.2100
     52 H           5.6668   12.9869   39.2751 H       1  UNL1        0.2095
@<TRIPOS>BOND
     1     1     2    2
     2     2     3    1
     3     2     4    1
     4     3     5   ar
     5     3     6   ar
     6     4     7   ar
     7     4     8   ar
     8     5     9    1
     9     5    10   ar
    10     6    11   ar
    11     6    12    1
    12     7    13    1
    13     7    14   ar
    14     8    15   ar
    15    10    16   ar
    16    12    17    1
    17    14    18   ar
    18    16    19    1
    19    17    20    1
    20    17    21    1
    21    19    22    1
    22    20    23    1
    23    21    24    1
    24    21    25    1
    25    23    26    1
    26    23    27    1
    27    25    28    1
    28    26    29    1
    29    27    30    1
    30     8    12    1
    31    11    16   ar
    32    15    18   ar
    33    25    26    1
    34     9    31    1
    35    10    32    1
    36    11    33    1
    37    12    34    1
    38    13    35    1
    39    14    36    1
    40    15    37    1
    41    17    38    1
    42    18    39    1
    43    19    40    1
    44    19    41    1
    45    21    42    1
    46    22    43    1
    47    23    44    1
    48    24    45    1
    49    25    46    1
    50    26    47    1
    51    27    48    1
    52    27    49    1
    53    28    50    1
    54    29    51    1
    55    30    52    1
@<TRIPOS>SUBSTRUCTURE
     1 UNL1        1 TEMP              0 ****  ****    0 ROOT


##########                                Name:                  65
##########                DOCK_Rotatable_Bonds:                  10
##########                         Heavy_Atoms:                  30
##########                    Molecular_Weight:               418.4
##########                       Formal_Charge:         0.000299811
##########                     HBond_Acceptors:                   9
##########                        HBond_Donors:                   7
##########                    Descriptor_Score:           12.099872
##########          Footprint_Similarity_Score:            6.038960
##########                 desc_FPS_vdw_energy:          -29.843121
##########                  desc_FPS_es_energy:           -4.822168
##########              desc_FPS_vdw+es_energy:          -34.665291
##########                  desc_FPS_num_hbond:                   0
##########                    desc_FPS_vdw_fps:            3.982891
##########                     desc_FPS_es_fps:            2.056068
##########                     desc_FPS_hb_fps:            0.000000
##########              desc_FPS_vdw_fp_numres:                 219
##########               desc_FPS_es_fp_numres:                 219
##########               desc_FPS_hb_fp_numres:                 219
##########                 Pharmacophore_Score:            4.688085
##########              desc_FMS_num_match_tot:                   2
##########              desc_FMS_max_match_ref:                  10
##########              desc_FMS_max_match_mol:                  20
##########                 desc_FMS_match_rate:            0.800000
##########                desc_FMS_match_resid:            0.688085
##########    desc_FMS_num_hydrophobic_matched:                   0
##########          desc_FMS_num_donor_matched:                   1
##########       desc_FMS_num_acceptor_matched:                   1
##########       desc_FMS_num_aromatic_matched:                   0
##########       desc_FMS_num_positive_matched:                   0
##########       desc_FMS_num_negative_matched:                   0
##########           desc_FMS_num_ring_matched:                   0
########## Hungarian_Matching_Similarity_Score:            1.736373
##########       desc_HMS_num_unmtchd_hvy_atms:                  21
##########           desc_HMS_num_ref_hvy_atms:                  23
##########        desc_HMS_rmsd_mtchd_hvy_atms:            2.171156
##########               Property_Volume_Score:            0.363547
##########               desc_VOS_geometric_vo:            0.564295
##########                desc_VOS_hvy_atom_vo:            0.519944
##########            desc_VOS_pos_chrg_atm_vo:            0.176115
##########            desc_VOS_neg_chrg_atm_vo:            0.378961
##########         desc_VOS_hydrophobic_atm_vo:            0.408456
##########         desc_VOS_hydrophilic_atm_vo:            0.133508
##########           Internal_energy_repulsive:           55.471375

@<TRIPOS>MOLECULE
65
 52 55 1 0 0
SMALL
GASTEIGER


@<TRIPOS>ATOM
      1 O           9.5211   10.8865   43.0711 O.2     1  UNL1       -0.2864
      2 C           9.9247   11.9943   43.3753 C.2     1  UNL1        0.2007
      3 C          11.3499   12.2294   43.7652 C.ar    1  UNL1        0.0676
      4 C           9.0031   13.1673   43.5031 C.ar    1  UNL1        0.0676
      5 C          12.2758   11.1769   43.8159 C.ar    1  UNL1        0.1283
      6 C          11.7549   13.5259   44.0975 C.ar    1  UNL1       -0.0227
      7 C           7.6129   13.0072   43.3841 C.ar    1  UNL1        0.1279
      8 C           9.5414   14.4380   43.7567 C.ar    1  UNL1       -0.0231
      9 O          11.9078    9.9077   43.4974 O.3     1  UNL1       -0.5060
     10 C          13.6106   11.4309   44.1085 C.ar    1  UNL1       -0.0141
     11 C          13.0465   13.7144   44.5964 C.ar    1  UNL1       -0.0516
     12 C          10.9730   14.6724   43.6469 C.3     1  UNL1        0.0395
     13 O           7.0675   11.7730   43.1826 O.3     1  UNL1       -0.5060
     14 C           6.7669   14.1078   43.4899 C.ar    1  UNL1       -0.0194
     15 C           8.6725   15.5326   43.8743 C.ar    1  UNL1       -0.0570
     16 C          14.0066   12.7096   44.4834 C.ar    1  UNL1       -0.0184
     17 C          11.4319   15.5993   42.5173 C.3     1  UNL1        0.0983
     18 C           7.2970   15.3694   43.7365 C.ar    1  UNL1       -0.0580
     19 C          15.4867   13.0700   44.5666 C.3     1  UNL1        0.0694
     20 O          12.0411   16.8048   43.0565 O.3     1  UNL1       -0.3649
     21 C          10.4395   15.9790   41.3836 C.3     1  UNL1        0.1104
     22 O          15.7060   14.2301   45.3461 O.3     1  UNL1       -0.3904
     23 C          11.1607   17.8716   43.4984 C.3     1  UNL1        0.1104
     24 O           9.6727   14.8385   41.0117 O.3     1  UNL1       -0.3865
     25 C           9.4977   17.1706   41.7116 C.3     1  UNL1        0.1118
     26 C          10.2624   18.3580   42.3239 C.3     1  UNL1        0.1117
     27 C          12.0311   18.9726   44.1464 C.3     1  UNL1        0.0729
     28 O           8.8297   17.5929   40.5281 O.3     1  UNL1       -0.3865
     29 O          11.0136   18.9713   41.2794 O.3     1  UNL1       -0.3865
     30 O          12.8143   18.4547   45.2272 O.3     1  UNL1       -0.3924
     31 H          12.6333    9.3226   43.8381 H       1  UNL1        0.2922
     32 H          14.3410   10.6278   44.0220 H       1  UNL1        0.0658
     33 H          13.3614   14.7033   44.9141 H       1  UNL1        0.0624
     34 H          10.9767   15.1334   44.6474 H       1  UNL1        0.0424
     35 H           6.0824   11.9025   43.1068 H       1  UNL1        0.2922
     36 H           5.6923   13.9827   43.3773 H       1  UNL1        0.0654
     37 H           9.0695   16.5339   44.0281 H       1  UNL1        0.0621
     38 H          12.2492   15.0934   41.9973 H       1  UNL1        0.0632
     39 H           6.6369   16.2312   43.8002 H       1  UNL1        0.0619
     40 H          15.9079   13.2215   43.5675 H       1  UNL1        0.0607
     41 H          16.0303   12.2416   45.0345 H       1  UNL1        0.0607
     42 H          11.0412   16.2767   40.5193 H       1  UNL1        0.0646
     43 H          15.1835   14.9318   44.9370 H       1  UNL1        0.2098
     44 H          10.5072   17.4910   44.2818 H       1  UNL1        0.0646
     45 H           9.1070   14.6348   41.7735 H       1  UNL1        0.2100
     46 H           8.7190   16.8951   42.3997 H       1  UNL1        0.0647
     47 H           9.5438   19.0863   42.7110 H       1  UNL1        0.0647
     48 H          11.3722   19.7534   44.5372 H       1  UNL1        0.0584
     49 H          12.6862   19.4206   43.3943 H       1  UNL1        0.0584
     50 H           8.2141   18.2867   40.8287 H       1  UNL1        0.2100
     51 H          10.3709   19.2038   40.5943 H       1  UNL1        0.2100
     52 H          13.3566   19.1812   45.5890 H       1  UNL1        0.2095
@<TRIPOS>BOND
     1     1     2    2
     2     2     3    1
     3     2     4    1
     4     3     5   ar
     5     3     6   ar
     6     4     7   ar
     7     4     8   ar
     8     5     9    1
     9     5    10   ar
    10     6    11   ar
    11     6    12    1
    12     7    13    1
    13     7    14   ar
    14     8    15   ar
    15    10    16   ar
    16    12    17    1
    17    14    18   ar
    18    16    19    1
    19    17    20    1
    20    17    21    1
    21    19    22    1
    22    20    23    1
    23    21    24    1
    24    21    25    1
    25    23    26    1
    26    23    27    1
    27    25    28    1
    28    26    29    1
    29    27    30    1
    30     8    12    1
    31    11    16   ar
    32    15    18   ar
    33    25    26    1
    34     9    31    1
    35    10    32    1
    36    11    33    1
    37    12    34    1
    38    13    35    1
    39    14    36    1
    40    15    37    1
    41    17    38    1
    42    18    39    1
    43    19    40    1
    44    19    41    1
    45    21    42    1
    46    22    43    1
    47    23    44    1
    48    24    45    1
    49    25    46    1
    50    26    47    1
    51    27    48    1
    52    27    49    1
    53    28    50    1
    54    29    51    1
    55    30    52    1
@<TRIPOS>SUBSTRUCTURE
     1 UNL1        1 TEMP              0 ****  ****    0 ROOT


##########                                Name:                  69
##########                DOCK_Rotatable_Bonds:                   3
##########                         Heavy_Atoms:                  20
##########                    Molecular_Weight:             270.241
##########                       Formal_Charge:         9.99756e-05
##########                     HBond_Acceptors:                   5
##########                        HBond_Donors:                   3
##########                    Descriptor_Score:           40.317928
##########          Footprint_Similarity_Score:           12.401072
##########                 desc_FPS_vdw_energy:          -27.216185
##########                  desc_FPS_es_energy:           -2.310197
##########              desc_FPS_vdw+es_energy:          -29.526382
##########                  desc_FPS_num_hbond:                   1
##########                    desc_FPS_vdw_fps:           10.122743
##########                     desc_FPS_es_fps:            2.278329
##########                     desc_FPS_hb_fps:            1.000000
##########              desc_FPS_vdw_fp_numres:                 219
##########               desc_FPS_es_fp_numres:                 219
##########               desc_FPS_hb_fp_numres:                 219
##########                 Pharmacophore_Score:           20.000000
##########              desc_FMS_num_match_tot:                   0
##########              desc_FMS_max_match_ref:                  10
##########              desc_FMS_max_match_mol:                  12
##########                 desc_FMS_match_rate:            4.000000
##########                desc_FMS_match_resid:            0.000000
##########    desc_FMS_num_hydrophobic_matched:                   0
##########          desc_FMS_num_donor_matched:                   0
##########       desc_FMS_num_acceptor_matched:                   0
##########       desc_FMS_num_aromatic_matched:                   0
##########       desc_FMS_num_positive_matched:                   0
##########       desc_FMS_num_negative_matched:                   0
##########           desc_FMS_num_ring_matched:                   0
########## Hungarian_Matching_Similarity_Score:            7.916860
##########       desc_HMS_num_unmtchd_hvy_atms:                   9
##########           desc_HMS_num_ref_hvy_atms:                  23
##########        desc_HMS_rmsd_mtchd_hvy_atms:           10.960338
##########               Property_Volume_Score:            0.000000
##########               desc_VOS_geometric_vo:            0.000000
##########                desc_VOS_hvy_atom_vo:            0.000000
##########            desc_VOS_pos_chrg_atm_vo:            0.000000
##########            desc_VOS_neg_chrg_atm_vo:            0.000000
##########         desc_VOS_hydrophobic_atm_vo:            0.000000
##########         desc_VOS_hydrophilic_atm_vo:            0.000000
##########           Internal_energy_repulsive:           12.801661

@<TRIPOS>MOLECULE
69
 30 32 1 0 0
SMALL
GASTEIGER


@<TRIPOS>ATOM
      1 O          22.4195   10.1339   43.0391 O.2     1  UNL1       -0.2864
      2 C          22.7808   10.6094   41.9781 C.2     1  UNL1        0.2015
      3 C          23.2184   12.0453   41.8993 C.ar    1  UNL1        0.0748
      4 C          22.7964    9.7708   40.7294 C.ar    1  UNL1        0.0745
      5 C          23.2169   12.8587   43.0475 C.ar    1  UNL1        0.1318
      6 C          23.6332   12.5876   40.6763 C.ar    1  UNL1        0.0400
      7 C          22.3944    8.4240   40.7657 C.ar    1  UNL1        0.1286
      8 C          23.2131   10.3256   39.5135 C.ar    1  UNL1        0.0368
      9 O          22.8214   12.3775   44.2633 O.3     1  UNL1       -0.5059
     10 C          23.6232   14.1871   42.9711 C.ar    1  UNL1        0.0221
     11 C          23.6502   11.7568   39.4295 C.2     1  UNL1        0.1949
     12 C          24.0391   13.9252   40.6136 C.ar    1  UNL1       -0.0084
     13 O          21.9809    7.8415   41.9296 O.3     1  UNL1       -0.5060
     14 C          22.4096    7.6496   39.6084 C.ar    1  UNL1       -0.0165
     15 C          23.2233    9.5356   38.3580 C.ar    1  UNL1       -0.0471
     16 C          24.0343   14.7204   41.7548 C.ar    1  UNL1        0.1210
     17 O          24.0114   12.2338   38.3708 O.2     1  UNL1       -0.2866
     18 C          22.8241    8.2014   38.3986 C.ar    1  UNL1       -0.0463
     19 O          24.4322   16.0196   41.6817 O.3     1  UNL1       -0.5066
     20 C          22.8441    7.3648   37.1310 C.3     1  UNL1       -0.0396
     21 H          22.6685   11.3991   44.1571 H       1  UNL1        0.2922
     22 H          23.6178   14.8054   43.8661 H       1  UNL1        0.0691
     23 H          24.3637   14.3583   39.6697 H       1  UNL1        0.0661
     24 H          21.7547    6.8928   41.7183 H       1  UNL1        0.2922
     25 H          22.0954    6.6089   39.6545 H       1  UNL1        0.0657
     26 H          23.5460    9.9604   37.4096 H       1  UNL1        0.0627
     27 H          24.3637   16.4237   42.5655 H       1  UNL1        0.2921
     28 H          22.5047    6.3443   37.3229 H       1  UNL1        0.0278
     29 H          23.8564    7.3157   36.7235 H       1  UNL1        0.0278
     30 H          22.1898    7.8044   36.3748 H       1  UNL1        0.0278
@<TRIPOS>BOND
     1     1     2    2
     2     2     3    1
     3     2     4    1
     4     3     5   ar
     5     3     6   ar
     6     4     7   ar
     7     4     8   ar
     8     5     9    1
     9     5    10   ar
    10     6    11    1
    11     6    12   ar
    12     7    13    1
    13     7    14   ar
    14     8    15   ar
    15    10    16   ar
    16    11    17    2
    17    14    18   ar
    18    16    19    1
    19    18    20    1
    20     8    11    1
    21    12    16   ar
    22    15    18   ar
    23     9    21    1
    24    10    22    1
    25    12    23    1
    26    13    24    1
    27    14    25    1
    28    15    26    1
    29    19    27    1
    30    20    28    1
    31    20    29    1
    32    20    30    1
@<TRIPOS>SUBSTRUCTURE
     1 UNL1        1 TEMP              0 ****  ****    0 ROOT


##########                                Name:                  69
##########                DOCK_Rotatable_Bonds:                   3
##########                         Heavy_Atoms:                  20
##########                    Molecular_Weight:             270.241
##########                       Formal_Charge:         9.99756e-05
##########                     HBond_Acceptors:                   5
##########                        HBond_Donors:                   3
##########                    Descriptor_Score:           40.645355
##########          Footprint_Similarity_Score:           12.737258
##########                 desc_FPS_vdw_energy:          -28.508665
##########                  desc_FPS_es_energy:           -2.037225
##########              desc_FPS_vdw+es_energy:          -30.545891
##########                  desc_FPS_num_hbond:                   1
##########                    desc_FPS_vdw_fps:           10.147891
##########                     desc_FPS_es_fps:            2.589367
##########                     desc_FPS_hb_fps:            1.000000
##########              desc_FPS_vdw_fp_numres:                 219
##########               desc_FPS_es_fp_numres:                 219
##########               desc_FPS_hb_fp_numres:                 219
##########                 Pharmacophore_Score:           20.000000
##########              desc_FMS_num_match_tot:                   0
##########              desc_FMS_max_match_ref:                  10
##########              desc_FMS_max_match_mol:                  12
##########                 desc_FMS_match_rate:            4.000000
##########                desc_FMS_match_resid:            0.000000
##########    desc_FMS_num_hydrophobic_matched:                   0
##########          desc_FMS_num_donor_matched:                   0
##########       desc_FMS_num_acceptor_matched:                   0
##########       desc_FMS_num_aromatic_matched:                   0
##########       desc_FMS_num_positive_matched:                   0
##########       desc_FMS_num_negative_matched:                   0
##########           desc_FMS_num_ring_matched:                   0
########## Hungarian_Matching_Similarity_Score:            7.908094
##########       desc_HMS_num_unmtchd_hvy_atms:                   9
##########           desc_HMS_num_ref_hvy_atms:                  23
##########        desc_HMS_rmsd_mtchd_hvy_atms:           10.951573
##########               Property_Volume_Score:            0.000000
##########               desc_VOS_geometric_vo:            0.000000
##########                desc_VOS_hvy_atom_vo:            0.000000
##########            desc_VOS_pos_chrg_atm_vo:            0.000000
##########            desc_VOS_neg_chrg_atm_vo:            0.000000
##########         desc_VOS_hydrophobic_atm_vo:            0.000000
##########         desc_VOS_hydrophilic_atm_vo:            0.000000
##########           Internal_energy_repulsive:           12.802464

@<TRIPOS>MOLECULE
69
 30 32 1 0 0
SMALL
GASTEIGER


@<TRIPOS>ATOM
      1 O          22.3697    9.8891   42.7662 O.2     1  UNL1       -0.2864
      2 C          22.7476   10.2954   41.6824 C.2     1  UNL1        0.2015
      3 C          22.7636    9.3787   40.4913 C.ar    1  UNL1        0.0748
      4 C          23.2043   11.7189   41.5157 C.ar    1  UNL1        0.0745
      5 C          22.3430    8.0413   40.6108 C.ar    1  UNL1        0.1318
      6 C          23.1993    9.8510   39.2467 C.ar    1  UNL1        0.0400
      7 C          23.2023   12.6046   42.6076 C.ar    1  UNL1        0.1286
      8 C          23.6375   12.1778   40.2660 C.ar    1  UNL1        0.0368
      9 O          21.9094    7.5326   41.8023 O.3     1  UNL1       -0.5059
     10 C          22.3584    7.1958   39.5061 C.ar    1  UNL1        0.0221
     11 C          23.6556   11.2679   39.0753 C.2     1  UNL1        0.1949
     12 C          23.2098    8.9898   38.1439 C.ar    1  UNL1       -0.0084
     13 O          22.7876   12.2002   43.8443 O.3     1  UNL1       -0.5060
     14 C          23.6256   13.9221   42.4508 C.ar    1  UNL1       -0.0165
     15 C          24.0603   13.5045   40.1229 C.ar    1  UNL1       -0.0471
     16 C          22.7915    7.6696   38.2730 C.ar    1  UNL1        0.1210
     17 O          24.0327   11.6716   37.9919 O.2     1  UNL1       -0.2866
     18 C          24.0568   14.3787   41.2077 C.ar    1  UNL1       -0.0463
     19 O          22.8052    6.8418   37.1931 O.3     1  UNL1       -0.5066
     20 C          24.5202   15.8139   41.0268 C.3     1  UNL1       -0.0396
     21 H          21.6384    6.5884   41.6380 H       1  UNL1        0.2922
     22 H          22.0304    6.1640   39.6116 H       1  UNL1        0.0691
     23 H          23.5458    9.3445   37.1716 H       1  UNL1        0.0661
     24 H          22.5422   11.2359   43.7704 H       1  UNL1        0.2922
     25 H          23.6175   14.5941   43.3065 H       1  UNL1        0.0657
     26 H          24.3983   13.8678   39.1545 H       1  UNL1        0.0627
     27 H          22.5024    5.9571   37.4663 H       1  UNL1        0.2921
     28 H          24.4599   16.3721   41.9639 H       1  UNL1        0.0278
     29 H          23.8995   16.3237   40.2865 H       1  UNL1        0.0278
     30 H          25.5566   15.8384   40.6823 H       1  UNL1        0.0278
@<TRIPOS>BOND
     1     1     2    2
     2     2     3    1
     3     2     4    1
     4     3     5   ar
     5     3     6   ar
     6     4     7   ar
     7     4     8   ar
     8     5     9    1
     9     5    10   ar
    10     6    11    1
    11     6    12   ar
    12     7    13    1
    13     7    14   ar
    14     8    15   ar
    15    10    16   ar
    16    11    17    2
    17    14    18   ar
    18    16    19    1
    19    18    20    1
    20     8    11    1
    21    12    16   ar
    22    15    18   ar
    23     9    21    1
    24    10    22    1
    25    12    23    1
    26    13    24    1
    27    14    25    1
    28    15    26    1
    29    19    27    1
    30    20    28    1
    31    20    29    1
    32    20    30    1
@<TRIPOS>SUBSTRUCTURE
     1 UNL1        1 TEMP              0 ****  ****    0 ROOT


##########                                Name:                  69
##########                DOCK_Rotatable_Bonds:                   3
##########                         Heavy_Atoms:                  20
##########                    Molecular_Weight:             270.241
##########                       Formal_Charge:         9.99756e-05
##########                     HBond_Acceptors:                   5
##########                        HBond_Donors:                   3
##########                    Descriptor_Score:           42.583523
##########          Footprint_Similarity_Score:           13.327664
##########                 desc_FPS_vdw_energy:          -28.079672
##########                  desc_FPS_es_energy:           -2.584307
##########              desc_FPS_vdw+es_energy:          -30.663979
##########                  desc_FPS_num_hbond:                   2
##########                    desc_FPS_vdw_fps:           10.510439
##########                     desc_FPS_es_fps:            2.817226
##########                     desc_FPS_hb_fps:            1.414214
##########              desc_FPS_vdw_fp_numres:                 219
##########               desc_FPS_es_fp_numres:                 219
##########               desc_FPS_hb_fp_numres:                 219
##########                 Pharmacophore_Score:           20.000000
##########              desc_FMS_num_match_tot:                   0
##########              desc_FMS_max_match_ref:                  10
##########              desc_FMS_max_match_mol:                  12
##########                 desc_FMS_match_rate:            4.000000
##########                desc_FMS_match_resid:            0.000000
##########    desc_FMS_num_hydrophobic_matched:                   0
##########          desc_FMS_num_donor_matched:                   0
##########       desc_FMS_num_acceptor_matched:                   0
##########       desc_FMS_num_aromatic_matched:                   0
##########       desc_FMS_num_positive_matched:                   0
##########       desc_FMS_num_negative_matched:                   0
##########           desc_FMS_num_ring_matched:                   0
########## Hungarian_Matching_Similarity_Score:            9.255858
##########       desc_HMS_num_unmtchd_hvy_atms:                   9
##########           desc_HMS_num_ref_hvy_atms:                  23
##########        desc_HMS_rmsd_mtchd_hvy_atms:           12.299337
##########               Property_Volume_Score:            0.000000
##########               desc_VOS_geometric_vo:            0.000000
##########                desc_VOS_hvy_atom_vo:            0.000000
##########            desc_VOS_pos_chrg_atm_vo:            0.000000
##########            desc_VOS_neg_chrg_atm_vo:            0.000000
##########         desc_VOS_hydrophobic_atm_vo:            0.000000
##########         desc_VOS_hydrophilic_atm_vo:            0.000000
##########           Internal_energy_repulsive:           12.800058

@<TRIPOS>MOLECULE
69
 30 32 1 0 0
SMALL
GASTEIGER


@<TRIPOS>ATOM
      1 O          24.0407   11.6876   39.0408 O.2     1  UNL1       -0.2864
      2 C          23.6720   10.5516   38.8043 C.2     1  UNL1        0.2015
      3 C          23.0102    9.7298   39.8748 C.ar    1  UNL1        0.0748
      4 C          23.8713    9.9509   37.4397 C.ar    1  UNL1        0.0745
      5 C          22.8074   10.2599   41.1624 C.ar    1  UNL1        0.1318
      6 C          22.5878    8.4234   39.5977 C.ar    1  UNL1        0.0400
      7 C          24.4860   10.6904   36.4141 C.ar    1  UNL1        0.1286
      8 C          23.4445    8.6438   37.1764 C.ar    1  UNL1        0.0368
      9 O          23.2012   11.5282   41.4829 O.3     1  UNL1       -0.5059
     10 C          22.1939    9.4968   42.1506 C.ar    1  UNL1        0.0221
     11 C          22.7843    7.8201   38.2403 C.2     1  UNL1        0.1949
     12 C          21.9723    7.6668   40.6010 C.ar    1  UNL1       -0.0084
     13 O          24.9173   11.9687   36.6260 O.3     1  UNL1       -0.5060
     14 C          24.6694   10.1321   35.1515 C.ar    1  UNL1       -0.0165
     15 C          23.6353    8.0953   35.9028 C.ar    1  UNL1       -0.0471
     16 C          21.7762    8.2007   41.8703 C.ar    1  UNL1        0.1210
     17 O          22.4153    6.6852   38.0063 O.2     1  UNL1       -0.2866
     18 C          24.2451    8.8317   34.8894 C.ar    1  UNL1       -0.0463
     19 O          21.1755    7.4557   42.8376 O.3     1  UNL1       -0.5066
     20 C          24.4407    8.2141   33.5156 C.3     1  UNL1       -0.0396
     21 H          23.1689   12.0668   40.6457 H       1  UNL1        0.2922
     22 H          22.0426    9.9182   43.1420 H       1  UNL1        0.0691
     23 H          21.6395    6.6508   40.3984 H       1  UNL1        0.0661
     24 H          24.6937   12.2007   37.5704 H       1  UNL1        0.2922
     25 H          25.1470   10.7186   34.3692 H       1  UNL1        0.0657
     26 H          23.3061    7.0799   35.6913 H       1  UNL1        0.0627
     27 H          21.0368    6.5515   42.5027 H       1  UNL1        0.2921
     28 H          24.9307    8.9116   32.8324 H       1  UNL1        0.0278
     29 H          23.4772    7.9348   33.0833 H       1  UNL1        0.0278
     30 H          25.0591    7.3164   33.5866 H       1  UNL1        0.0278
@<TRIPOS>BOND
     1     1     2    2
     2     2     3    1
     3     2     4    1
     4     3     5   ar
     5     3     6   ar
     6     4     7   ar
     7     4     8   ar
     8     5     9    1
     9     5    10   ar
    10     6    11    1
    11     6    12   ar
    12     7    13    1
    13     7    14   ar
    14     8    15   ar
    15    10    16   ar
    16    11    17    2
    17    14    18   ar
    18    16    19    1
    19    18    20    1
    20     8    11    1
    21    12    16   ar
    22    15    18   ar
    23     9    21    1
    24    10    22    1
    25    12    23    1
    26    13    24    1
    27    14    25    1
    28    15    26    1
    29    19    27    1
    30    20    28    1
    31    20    29    1
    32    20    30    1
@<TRIPOS>SUBSTRUCTURE
     1 UNL1        1 TEMP              0 ****  ****    0 ROOT


##########                                Name:                  74
##########                DOCK_Rotatable_Bonds:                   2
##########                         Heavy_Atoms:                  18
##########                    Molecular_Weight:             238.243
##########                       Formal_Charge:         0.000200026
##########                     HBond_Acceptors:                   3
##########                        HBond_Donors:                   1
##########                    Descriptor_Score:           40.215805
##########          Footprint_Similarity_Score:           12.293777
##########                 desc_FPS_vdw_energy:          -28.073639
##########                  desc_FPS_es_energy:           -0.401005
##########              desc_FPS_vdw+es_energy:          -28.474644
##########                  desc_FPS_num_hbond:                   1
##########                    desc_FPS_vdw_fps:           10.366496
##########                     desc_FPS_es_fps:            1.927281
##########                     desc_FPS_hb_fps:            1.000000
##########              desc_FPS_vdw_fp_numres:                 219
##########               desc_FPS_es_fp_numres:                 219
##########               desc_FPS_hb_fp_numres:                 219
##########                 Pharmacophore_Score:           20.000000
##########              desc_FMS_num_match_tot:                   0
##########              desc_FMS_max_match_ref:                  10
##########              desc_FMS_max_match_mol:                   7
##########                 desc_FMS_match_rate:            4.000000
##########                desc_FMS_match_resid:            0.000000
##########    desc_FMS_num_hydrophobic_matched:                   0
##########          desc_FMS_num_donor_matched:                   0
##########       desc_FMS_num_acceptor_matched:                   0
##########       desc_FMS_num_aromatic_matched:                   0
##########       desc_FMS_num_positive_matched:                   0
##########       desc_FMS_num_negative_matched:                   0
##########           desc_FMS_num_ring_matched:                   0
########## Hungarian_Matching_Similarity_Score:            7.922029
##########       desc_HMS_num_unmtchd_hvy_atms:                   7
##########           desc_HMS_num_ref_hvy_atms:                  23
##########        desc_HMS_rmsd_mtchd_hvy_atms:           11.400290
##########               Property_Volume_Score:            0.000000
##########               desc_VOS_geometric_vo:            0.000000
##########                desc_VOS_hvy_atom_vo:            0.000000
##########            desc_VOS_pos_chrg_atm_vo:            0.000000
##########            desc_VOS_neg_chrg_atm_vo:            0.000000
##########         desc_VOS_hydrophobic_atm_vo:            0.000000
##########         desc_VOS_hydrophilic_atm_vo:            0.000000
##########           Internal_energy_repulsive:            5.186845

@<TRIPOS>MOLECULE
74
 28 30 1 0 0
SMALL
GASTEIGER


@<TRIPOS>ATOM
      1 O          24.0528   11.5329   38.2215 O.2     1  UNL1       -0.2870
      2 C          23.6241   11.4101   39.3526 C.ar    1  UNL1        0.1932
      3 C          23.0268   10.1793   39.8798 C.ar    1  UNL1        0.0674
      4 C          23.6113   12.4978   40.3598 C.ar    1  UNL1        0.0287
      5 C          22.5673   10.2626   41.1747 C.ar    1  UNL1        0.1395
      6 C          22.8512    8.9371   39.1685 C.ar    1  UNL1       -0.0058
      7 C          23.2053   12.4026   41.4107 C.ar    1  UNL1        0.1392
      8 O          22.7034   11.4811   41.8234 O.2     1  UNL1       -0.4546
      9 C          21.9370    9.1252   41.7966 C.ar    1  UNL1       -0.0152
     10 C          22.2327    7.8448   39.7720 C.ar    1  UNL1        0.1178
     11 C          23.2679   13.5148   42.4380 C.ar    1  UNL1        0.0174
     12 C          21.7786    7.9381   41.0857 C.ar    1  UNL1       -0.0167
     13 O          22.0679    6.6815   39.0815 O.3     1  UNL1       -0.5067
     14 C          23.9893   14.7017   42.1865 C.ar    1  UNL1       -0.0511
     15 C          22.6269   13.3840   43.6890 C.ar    1  UNL1       -0.0511
     16 C          24.0828   15.6976   43.1578 C.ar    1  UNL1       -0.0611
     17 C          22.7263   14.3873   44.6505 C.ar    1  UNL1       -0.0611
     18 C          23.4576   15.5404   44.3902 C.ar    1  UNL1       -0.0617
     19 H          23.9670   13.4502   39.9822 H       1  UNL1        0.0693
     20 H          23.2078    8.8780   38.1428 H       1  UNL1        0.0662
     21 H          21.5853    9.1939   42.8229 H       1  UNL1        0.0656
     22 H          21.2997    7.0836   41.5578 H       1  UNL1        0.0655
     23 H          22.4199    6.7735   38.1768 H       1  UNL1        0.2921
     24 H          24.5012   14.8511   41.2387 H       1  UNL1        0.0625
     25 H          22.0385   12.5023   43.9288 H       1  UNL1        0.0625
     26 H          24.6539   16.5999   42.9538 H       1  UNL1        0.0618
     27 H          22.2314   14.2659   45.6112 H       1  UNL1        0.0618
     28 H          23.5388   16.3168   45.1472 H       1  UNL1        0.0618
@<TRIPOS>BOND
     1     1     2    2
     2     2     3   ar
     3     2     4   ar
     4     3     5   ar
     5     3     6   ar
     6     4     7   ar
     7     5     8   ar
     8     5     9   ar
     9     6    10   ar
    10     7    11    1
    11     9    12   ar
    12    10    13    1
    13    11    14   ar
    14    11    15   ar
    15    14    16   ar
    16    15    17   ar
    17    16    18   ar
    18     7     8   ar
    19    10    12   ar
    20    17    18   ar
    21     4    19    1
    22     6    20    1
    23     9    21    1
    24    12    22    1
    25    13    23    1
    26    14    24    1
    27    15    25    1
    28    16    26    1
    29    17    27    1
    30    18    28    1
@<TRIPOS>SUBSTRUCTURE
     1 UNL1        1 TEMP              0 ****  ****    0 ROOT


##########                                Name:                  74
##########                DOCK_Rotatable_Bonds:                   2
##########                         Heavy_Atoms:                  18
##########                    Molecular_Weight:             238.243
##########                       Formal_Charge:         0.000200026
##########                     HBond_Acceptors:                   3
##########                        HBond_Donors:                   1
##########                    Descriptor_Score:           40.061817
##########          Footprint_Similarity_Score:           12.135418
##########                 desc_FPS_vdw_energy:          -27.871506
##########                  desc_FPS_es_energy:           -0.572461
##########              desc_FPS_vdw+es_energy:          -28.443966
##########                  desc_FPS_num_hbond:                   1
##########                    desc_FPS_vdw_fps:           10.183629
##########                     desc_FPS_es_fps:            1.951789
##########                     desc_FPS_hb_fps:            1.000000
##########              desc_FPS_vdw_fp_numres:                 219
##########               desc_FPS_es_fp_numres:                 219
##########               desc_FPS_hb_fp_numres:                 219
##########                 Pharmacophore_Score:           20.000000
##########              desc_FMS_num_match_tot:                   0
##########              desc_FMS_max_match_ref:                  10
##########              desc_FMS_max_match_mol:                   7
##########                 desc_FMS_match_rate:            4.000000
##########                desc_FMS_match_resid:            0.000000
##########    desc_FMS_num_hydrophobic_matched:                   0
##########          desc_FMS_num_donor_matched:                   0
##########       desc_FMS_num_acceptor_matched:                   0
##########       desc_FMS_num_aromatic_matched:                   0
##########       desc_FMS_num_positive_matched:                   0
##########       desc_FMS_num_negative_matched:                   0
##########           desc_FMS_num_ring_matched:                   0
########## Hungarian_Matching_Similarity_Score:            7.926400
##########       desc_HMS_num_unmtchd_hvy_atms:                   7
##########           desc_HMS_num_ref_hvy_atms:                  23
##########        desc_HMS_rmsd_mtchd_hvy_atms:           11.404660
##########               Property_Volume_Score:            0.000000
##########               desc_VOS_geometric_vo:            0.000000
##########                desc_VOS_hvy_atom_vo:            0.000000
##########            desc_VOS_pos_chrg_atm_vo:            0.000000
##########            desc_VOS_neg_chrg_atm_vo:            0.000000
##########         desc_VOS_hydrophobic_atm_vo:            0.000000
##########         desc_VOS_hydrophilic_atm_vo:            0.000000
##########           Internal_energy_repulsive:            5.693268

@<TRIPOS>MOLECULE
74
 28 30 1 0 0
SMALL
GASTEIGER


@<TRIPOS>ATOM
      1 O          24.1617   11.4085   38.2821 O.2     1  UNL1       -0.2870
      2 C          23.6996   11.3045   39.4018 C.ar    1  UNL1        0.1932
      3 C          23.0582   10.0927   39.9209 C.ar    1  UNL1        0.0674
      4 C          23.6861   12.3998   40.4009 C.ar    1  UNL1        0.0287
      5 C          22.5660   10.1968   41.2021 C.ar    1  UNL1        0.1395
      6 C          22.8716    8.8498   39.2136 C.ar    1  UNL1       -0.0058
      7 C          23.2495   12.3223   41.4409 C.ar    1  UNL1        0.1392
      8 O          22.7142   11.4164   41.8460 O.2     1  UNL1       -0.4546
      9 C          21.8913    9.0798   41.8143 C.ar    1  UNL1       -0.0152
     10 C          22.2104    7.7774   39.8074 C.ar    1  UNL1        0.1178
     11 C          23.3115   13.4403   42.4620 C.ar    1  UNL1        0.0174
     12 C          21.7232    7.8915   41.1075 C.ar    1  UNL1       -0.0167
     13 O          22.0359    6.6133   39.1205 O.3     1  UNL1       -0.5067
     14 C          22.7093   13.3044   43.7313 C.ar    1  UNL1       -0.0511
     15 C          23.9521   14.6621   42.1622 C.ar    1  UNL1       -0.0511
     16 C          22.7283   14.3575   44.6449 C.ar    1  UNL1       -0.0611
     17 C          23.9659   15.7062   43.0845 C.ar    1  UNL1       -0.0611
     18 C          23.3503   15.5589   44.3221 C.ar    1  UNL1       -0.0617
     19 H          24.0752   13.3404   40.0266 H       1  UNL1        0.0693
     20 H          23.2544    8.7743   38.1984 H       1  UNL1        0.0662
     21 H          21.5136    9.1647   42.8302 H       1  UNL1        0.0656
     22 H          21.2109    7.0525   41.5722 H       1  UNL1        0.0655
     23 H          22.4453    6.6778   38.2380 H       1  UNL1        0.2921
     24 H          22.2029   12.3835   44.0110 H       1  UNL1        0.0625
     25 H          24.4524   14.8146   41.2095 H       1  UNL1        0.0625
     26 H          22.2478   14.2420   45.6133 H       1  UNL1        0.0618
     27 H          24.4583   16.6426   42.8332 H       1  UNL1        0.0618
     28 H          23.3569   16.3799   45.0352 H       1  UNL1        0.0618
@<TRIPOS>BOND
     1     1     2    2
     2     2     3   ar
     3     2     4   ar
     4     3     5   ar
     5     3     6   ar
     6     4     7   ar
     7     5     8   ar
     8     5     9   ar
     9     6    10   ar
    10     7    11    1
    11     9    12   ar
    12    10    13    1
    13    11    14   ar
    14    11    15   ar
    15    14    16   ar
    16    15    17   ar
    17    16    18   ar
    18     7     8   ar
    19    10    12   ar
    20    17    18   ar
    21     4    19    1
    22     6    20    1
    23     9    21    1
    24    12    22    1
    25    13    23    1
    26    14    24    1
    27    15    25    1
    28    16    26    1
    29    17    27    1
    30    18    28    1
@<TRIPOS>SUBSTRUCTURE
     1 UNL1        1 TEMP              0 ****  ****    0 ROOT


##########                                Name:                  74
##########                DOCK_Rotatable_Bonds:                   2
##########                         Heavy_Atoms:                  18
##########                    Molecular_Weight:             238.243
##########                       Formal_Charge:         0.000200026
##########                     HBond_Acceptors:                   3
##########                        HBond_Donors:                   1
##########                    Descriptor_Score:           40.349010
##########          Footprint_Similarity_Score:           12.455663
##########                 desc_FPS_vdw_energy:          -26.836849
##########                  desc_FPS_es_energy:           -0.759555
##########              desc_FPS_vdw+es_energy:          -27.596403
##########                  desc_FPS_num_hbond:                   2
##########                    desc_FPS_vdw_fps:           10.054741
##########                     desc_FPS_es_fps:            2.400922
##########                     desc_FPS_hb_fps:            1.414214
##########              desc_FPS_vdw_fp_numres:                 219
##########               desc_FPS_es_fp_numres:                 219
##########               desc_FPS_hb_fp_numres:                 219
##########                 Pharmacophore_Score:           20.000000
##########              desc_FMS_num_match_tot:                   0
##########              desc_FMS_max_match_ref:                  10
##########              desc_FMS_max_match_mol:                   7
##########                 desc_FMS_match_rate:            4.000000
##########                desc_FMS_match_resid:            0.000000
##########    desc_FMS_num_hydrophobic_matched:                   0
##########          desc_FMS_num_donor_matched:                   0
##########       desc_FMS_num_acceptor_matched:                   0
##########       desc_FMS_num_aromatic_matched:                   0
##########       desc_FMS_num_positive_matched:                   0
##########       desc_FMS_num_negative_matched:                   0
##########           desc_FMS_num_ring_matched:                   0
########## Hungarian_Matching_Similarity_Score:            7.893347
##########       desc_HMS_num_unmtchd_hvy_atms:                   7
##########           desc_HMS_num_ref_hvy_atms:                  23
##########        desc_HMS_rmsd_mtchd_hvy_atms:           11.371608
##########               Property_Volume_Score:            0.000000
##########               desc_VOS_geometric_vo:            0.000000
##########                desc_VOS_hvy_atom_vo:            0.000000
##########            desc_VOS_pos_chrg_atm_vo:            0.000000
##########            desc_VOS_neg_chrg_atm_vo:            0.000000
##########         desc_VOS_hydrophobic_atm_vo:            0.000000
##########         desc_VOS_hydrophilic_atm_vo:            0.000000
##########           Internal_energy_repulsive:            5.644756

@<TRIPOS>MOLECULE
74
 28 30 1 0 0
SMALL
GASTEIGER


@<TRIPOS>ATOM
      1 O          24.0476   11.2408   38.2806 O.2     1  UNL1       -0.2870
      2 C          23.6093   11.2020   39.4139 C.ar    1  UNL1        0.1932
      3 C          22.9986   10.0162   40.0227 C.ar    1  UNL1        0.0674
      4 C          23.5969   12.3589   40.3409 C.ar    1  UNL1        0.0287
      5 C          22.5299   10.1949   41.3045 C.ar    1  UNL1        0.1395
      6 C          22.8192    8.7276   39.4004 C.ar    1  UNL1       -0.0058
      7 C          23.1821   12.3418   41.3925 C.ar    1  UNL1        0.1392
      8 O          22.6701   11.4556   41.8658 O.2     1  UNL1       -0.4546
      9 C          21.8862    9.1093   42.0008 C.ar    1  UNL1       -0.0152
     10 C          22.1879    7.6856   40.0752 C.ar    1  UNL1        0.1178
     11 C          23.2452   13.5241   42.3384 C.ar    1  UNL1        0.0174
     12 C          21.7243    7.8756   41.3751 C.ar    1  UNL1       -0.0167
     13 O          22.0196    6.4771   39.4681 O.3     1  UNL1       -0.5067
     14 C          23.8845   14.7256   41.9641 C.ar    1  UNL1       -0.0511
     15 C          22.6880   13.4479   43.6332 C.ar    1  UNL1       -0.0511
     16 C          23.9813   15.7896   42.8598 C.ar    1  UNL1       -0.0611
     17 C          22.7898   14.5189   44.5184 C.ar    1  UNL1       -0.0611
     18 C          23.4403   15.6867   44.1370 C.ar    1  UNL1       -0.0617
     19 H          23.9627   13.2795   39.8992 H       1  UNL1        0.0693
     20 H          23.1832    8.5929   38.3845 H       1  UNL1        0.0662
     21 H          21.5271    9.2536   43.0167 H       1  UNL1        0.0656
     22 H          21.2354    7.0603   41.9030 H       1  UNL1        0.0655
     23 H          21.5873    5.8507   40.0776 H       1  UNL1        0.2921
     24 H          24.3300   14.8348   40.9780 H       1  UNL1        0.0625
     25 H          22.1639   12.5564   43.9673 H       1  UNL1        0.0625
     26 H          24.4892   16.7034   42.5612 H       1  UNL1        0.0618
     27 H          22.3604   14.4394   45.5143 H       1  UNL1        0.0618
     28 H          23.5240   16.5166   44.8346 H       1  UNL1        0.0618
@<TRIPOS>BOND
     1     1     2    2
     2     2     3   ar
     3     2     4   ar
     4     3     5   ar
     5     3     6   ar
     6     4     7   ar
     7     5     8   ar
     8     5     9   ar
     9     6    10   ar
    10     7    11    1
    11     9    12   ar
    12    10    13    1
    13    11    14   ar
    14    11    15   ar
    15    14    16   ar
    16    15    17   ar
    17    16    18   ar
    18     7     8   ar
    19    10    12   ar
    20    17    18   ar
    21     4    19    1
    22     6    20    1
    23     9    21    1
    24    12    22    1
    25    13    23    1
    26    14    24    1
    27    15    25    1
    28    16    26    1
    29    17    27    1
    30    18    28    1
@<TRIPOS>SUBSTRUCTURE
     1 UNL1        1 TEMP              0 ****  ****    0 ROOT


##########                                Name:                  76
##########                DOCK_Rotatable_Bonds:                   4
##########                         Heavy_Atoms:                  20
##########                    Molecular_Weight:             271.359
##########                       Formal_Charge:         0.000500061
##########                     HBond_Acceptors:                   3
##########                        HBond_Donors:                   0
##########                    Descriptor_Score:           29.468508
##########          Footprint_Similarity_Score:            5.796025
##########                 desc_FPS_vdw_energy:          -30.597519
##########                  desc_FPS_es_energy:           -1.414235
##########              desc_FPS_vdw+es_energy:          -32.011753
##########                  desc_FPS_num_hbond:                   0
##########                    desc_FPS_vdw_fps:            4.641631
##########                     desc_FPS_es_fps:            1.154394
##########                     desc_FPS_hb_fps:            0.000000
##########              desc_FPS_vdw_fp_numres:                 219
##########               desc_FPS_es_fp_numres:                 219
##########               desc_FPS_hb_fp_numres:                 219
##########                 Pharmacophore_Score:           20.000000
##########              desc_FMS_num_match_tot:                   0
##########              desc_FMS_max_match_ref:                  10
##########              desc_FMS_max_match_mol:                   8
##########                 desc_FMS_match_rate:            4.000000
##########                desc_FMS_match_resid:            0.000000
##########    desc_FMS_num_hydrophobic_matched:                   0
##########          desc_FMS_num_donor_matched:                   0
##########       desc_FMS_num_acceptor_matched:                   0
##########       desc_FMS_num_aromatic_matched:                   0
##########       desc_FMS_num_positive_matched:                   0
##########       desc_FMS_num_negative_matched:                   0
##########           desc_FMS_num_ring_matched:                   0
########## Hungarian_Matching_Similarity_Score:            3.908695
##########       desc_HMS_num_unmtchd_hvy_atms:                  19
##########           desc_HMS_num_ref_hvy_atms:                  23
##########        desc_HMS_rmsd_mtchd_hvy_atms:            4.778260
##########               Property_Volume_Score:            0.236211
##########               desc_VOS_geometric_vo:            0.407950
##########                desc_VOS_hvy_atom_vo:            0.304642
##########            desc_VOS_pos_chrg_atm_vo:            0.244834
##########            desc_VOS_neg_chrg_atm_vo:            0.160915
##########         desc_VOS_hydrophobic_atm_vo:            0.235281
##########         desc_VOS_hydrophilic_atm_vo:            0.063644
##########           Internal_energy_repulsive:            7.623752

@<TRIPOS>MOLECULE
76
 41 43 1 0 0
SMALL
GASTEIGER


@<TRIPOS>ATOM
      1 O           8.2228   10.9585   43.4629 O.2     1  UNL1       -0.2450
      2 C           8.1187   11.9074   42.7086 C.2     1  UNL1        0.3395
      3 O           9.1642   12.4352   42.0179 O.3     1  UNL1       -0.4578
      4 C           6.8007   12.5314   42.4086 C.2     1  UNL1        0.0591
      5 C          10.5069   12.2217   42.5365 C.3     1  UNL1        0.1063
      6 C           5.8840   12.8701   43.5170 C.ar    1  UNL1       -0.0116
      7 C           6.4408   12.7675   41.1351 C.2     1  UNL1       -0.0841
      8 C          10.7008   12.9528   43.8931 C.3     1  UNL1        0.0000
      9 C          11.5842   12.6671   41.5128 C.3     1  UNL1        0.0000
     10 C           6.4036   13.3528   44.7199 C.ar    1  UNL1       -0.0538
     11 C           4.5107   12.6497   43.3983 C.ar    1  UNL1       -0.0538
     12 C          12.2021   12.9687   44.3282 C.3     1  UNL1        0.0138
     13 C          13.0015   12.7401   42.1730 C.3     1  UNL1        0.0138
     14 C           5.5579   13.6127   45.7959 C.ar    1  UNL1       -0.0612
     15 C           3.6641   12.9124   44.4742 C.ar    1  UNL1       -0.0612
     16 N          12.9664   12.0241   43.4740 N.3     1  UNL1       -0.2992
     17 C          12.8568   14.3342   44.0181 C.3     1  UNL1       -0.0358
     18 C          13.3594   14.1932   42.5688 C.3     1  UNL1       -0.0358
     19 C           4.1879   13.3913   45.6739 C.ar    1  UNL1       -0.0617
     20 C          14.2900   11.6343   44.0136 C.3     1  UNL1       -0.0122
     21 H          10.6529   11.1489   42.6956 H       1  UNL1        0.0735
     22 H           7.0900   12.5257   40.2985 H       1  UNL1        0.0543
     23 H           5.4792   13.2177   40.8981 H       1  UNL1        0.0543
     24 H          10.1150   12.4390   44.6576 H       1  UNL1        0.0316
     25 H          10.3025   13.9685   43.8251 H       1  UNL1        0.0316
     26 H          11.3072   13.6225   41.0619 H       1  UNL1        0.0316
     27 H          11.6083   11.9341   40.7036 H       1  UNL1        0.0316
     28 H           7.4743   13.5145   44.8230 H       1  UNL1        0.0624
     29 H           4.0997   12.2662   42.4674 H       1  UNL1        0.0624
     30 H          12.2829   12.7231   45.3909 H       1  UNL1        0.0464
     31 H          13.7490   12.3219   41.4934 H       1  UNL1        0.0464
     32 H           5.9690   13.9811   46.7326 H       1  UNL1        0.0618
     33 H           2.5954   12.7370   44.3799 H       1  UNL1        0.0618
     34 H          13.7063   14.4980   44.6861 H       1  UNL1        0.0281
     35 H          12.1691   15.1744   44.1371 H       1  UNL1        0.0281
     36 H          12.9065   14.9351   41.9073 H       1  UNL1        0.0281
     37 H          14.4427   14.3327   42.5398 H       1  UNL1        0.0281
     38 H           3.5283   13.5891   46.5156 H       1  UNL1        0.0618
     39 H          14.1572   11.1274   44.9730 H       1  UNL1        0.0391
     40 H          14.9345   12.5055   44.1588 H       1  UNL1        0.0391
     41 H          14.7780   10.9438   43.3206 H       1  UNL1        0.0391
@<TRIPOS>BOND
     1     1     2    2
     2     2     3    1
     3     2     4    1
     4     3     5    1
     5     4     6    1
     6     4     7    2
     7     5     8    1
     8     5     9    1
     9     6    10   ar
    10     6    11   ar
    11     8    12    1
    12     9    13    1
    13    10    14   ar
    14    11    15   ar
    15    12    16    1
    16    12    17    1
    17    13    18    1
    18    14    19   ar
    19    16    20    1
    20    13    16    1
    21    15    19   ar
    22    17    18    1
    23     5    21    1
    24     7    22    1
    25     7    23    1
    26     8    24    1
    27     8    25    1
    28     9    26    1
    29     9    27    1
    30    10    28    1
    31    11    29    1
    32    12    30    1
    33    13    31    1
    34    14    32    1
    35    15    33    1
    36    17    34    1
    37    17    35    1
    38    18    36    1
    39    18    37    1
    40    19    38    1
    41    20    39    1
    42    20    40    1
    43    20    41    1
@<TRIPOS>SUBSTRUCTURE
     1 UNL1        1 TEMP              0 ****  ****    0 ROOT


##########                                Name:                  76
##########                DOCK_Rotatable_Bonds:                   4
##########                         Heavy_Atoms:                  20
##########                    Molecular_Weight:             271.359
##########                       Formal_Charge:         0.000500061
##########                     HBond_Acceptors:                   3
##########                        HBond_Donors:                   0
##########                    Descriptor_Score:           27.681822
##########          Footprint_Similarity_Score:            4.376381
##########                 desc_FPS_vdw_energy:          -29.548647
##########                  desc_FPS_es_energy:           -0.893720
##########              desc_FPS_vdw+es_energy:          -30.442368
##########                  desc_FPS_num_hbond:                   0
##########                    desc_FPS_vdw_fps:            3.062726
##########                     desc_FPS_es_fps:            1.313656
##########                     desc_FPS_hb_fps:            0.000000
##########              desc_FPS_vdw_fp_numres:                 219
##########               desc_FPS_es_fp_numres:                 219
##########               desc_FPS_hb_fp_numres:                 219
##########                 Pharmacophore_Score:           20.000000
##########              desc_FMS_num_match_tot:                   0
##########              desc_FMS_max_match_ref:                  10
##########              desc_FMS_max_match_mol:                   8
##########                 desc_FMS_match_rate:            4.000000
##########                desc_FMS_match_resid:            0.000000
##########    desc_FMS_num_hydrophobic_matched:                   0
##########          desc_FMS_num_donor_matched:                   0
##########       desc_FMS_num_acceptor_matched:                   0
##########       desc_FMS_num_aromatic_matched:                   0
##########       desc_FMS_num_positive_matched:                   0
##########       desc_FMS_num_negative_matched:                   0
##########           desc_FMS_num_ring_matched:                   0
########## Hungarian_Matching_Similarity_Score:            3.657953
##########       desc_HMS_num_unmtchd_hvy_atms:                  19
##########           desc_HMS_num_ref_hvy_atms:                  23
##########        desc_HMS_rmsd_mtchd_hvy_atms:            4.527518
##########               Property_Volume_Score:            0.352513
##########               desc_VOS_geometric_vo:            0.586060
##########                desc_VOS_hvy_atom_vo:            0.479019
##########            desc_VOS_pos_chrg_atm_vo:            0.298824
##########            desc_VOS_neg_chrg_atm_vo:            0.251366
##########         desc_VOS_hydrophobic_atm_vo:            0.381499
##########         desc_VOS_hydrophilic_atm_vo:            0.118308
##########           Internal_energy_repulsive:           13.008275

@<TRIPOS>MOLECULE
76
 41 43 1 0 0
SMALL
GASTEIGER


@<TRIPOS>ATOM
      1 O           9.7218   12.5074   41.8969 O.2     1  UNL1       -0.2450
      2 C           9.5565   13.1028   42.9450 C.2     1  UNL1        0.3395
      3 O          10.5548   13.7437   43.6093 O.3     1  UNL1       -0.4578
      4 C           8.2085   13.2531   43.5588 C.2     1  UNL1        0.0591
      5 C          11.9104   13.6207   43.0951 C.3     1  UNL1        0.1063
      6 C           7.3410   12.0672   43.7152 C.ar    1  UNL1       -0.0116
      7 C           7.7776   14.4646   43.9509 C.2     1  UNL1       -0.0841
      8 C          12.5330   12.2543   43.4926 C.3     1  UNL1        0.0000
      9 C          12.8048   14.7934   43.5768 C.3     1  UNL1        0.0000
     10 C           7.8786   10.7904   43.5401 C.ar    1  UNL1       -0.0538
     11 C           5.9761   12.2116   43.9698 C.ar    1  UNL1       -0.0538
     12 C          14.0668   12.2127   43.1939 C.3     1  UNL1        0.0138
     13 C          14.3182   14.5066   43.2992 C.3     1  UNL1        0.0138
     14 C           7.0590    9.6667   43.6182 C.ar    1  UNL1       -0.0612
     15 C           5.1564   11.0869   44.0507 C.ar    1  UNL1       -0.0612
     16 N          14.4287   13.3751   42.3431 N.3     1  UNL1       -0.2992
     17 C          14.8908   12.4467   44.4806 C.3     1  UNL1       -0.0358
     18 C          15.0289   13.9784   44.5690 C.3     1  UNL1       -0.0358
     19 C           5.6972    9.8146   43.8723 C.ar    1  UNL1       -0.0617
     20 C          15.7364   13.2564   41.6570 C.3     1  UNL1       -0.0122
     21 H          11.8764   13.6829   42.0032 H       1  UNL1        0.0735
     22 H           8.3895   15.3559   43.8452 H       1  UNL1        0.0543
     23 H           6.7934   14.5930   44.3961 H       1  UNL1        0.0543
     24 H          12.0392   11.4633   42.9251 H       1  UNL1        0.0316
     25 H          12.3345   12.0515   44.5482 H       1  UNL1        0.0316
     26 H          12.6272   14.9961   44.6351 H       1  UNL1        0.0316
     27 H          12.5094   15.6925   43.0318 H       1  UNL1        0.0316
     28 H           8.9390   10.6719   43.3288 H       1  UNL1        0.0624
     29 H           5.5487   13.2031   44.0991 H       1  UNL1        0.0624
     30 H          14.3276   11.2599   42.7246 H       1  UNL1        0.0464
     31 H          14.8042   15.4112   42.9238 H       1  UNL1        0.0464
     32 H           7.4817    8.6755   43.4735 H       1  UNL1        0.0618
     33 H           4.0933   11.2025   44.2461 H       1  UNL1        0.0618
     34 H          15.8804   11.9952   44.3741 H       1  UNL1        0.0281
     35 H          14.4220   12.0220   45.3711 H       1  UNL1        0.0281
     36 H          14.5958   14.3733   45.4907 H       1  UNL1        0.0281
     37 H          16.0859   14.2543   44.5482 H       1  UNL1        0.0281
     38 H           5.0564    8.9379   43.9280 H       1  UNL1        0.0618
     39 H          15.7196   12.3919   40.9883 H       1  UNL1        0.0391
     40 H          16.5536   13.1354   42.3731 H       1  UNL1        0.0391
     41 H          15.9183   14.1539   41.0598 H       1  UNL1        0.0391
@<TRIPOS>BOND
     1     1     2    2
     2     2     3    1
     3     2     4    1
     4     3     5    1
     5     4     6    1
     6     4     7    2
     7     5     8    1
     8     5     9    1
     9     6    10   ar
    10     6    11   ar
    11     8    12    1
    12     9    13    1
    13    10    14   ar
    14    11    15   ar
    15    12    16    1
    16    12    17    1
    17    13    18    1
    18    14    19   ar
    19    16    20    1
    20    13    16    1
    21    15    19   ar
    22    17    18    1
    23     5    21    1
    24     7    22    1
    25     7    23    1
    26     8    24    1
    27     8    25    1
    28     9    26    1
    29     9    27    1
    30    10    28    1
    31    11    29    1
    32    12    30    1
    33    13    31    1
    34    14    32    1
    35    15    33    1
    36    17    34    1
    37    17    35    1
    38    18    36    1
    39    18    37    1
    40    19    38    1
    41    20    39    1
    42    20    40    1
    43    20    41    1
@<TRIPOS>SUBSTRUCTURE
     1 UNL1        1 TEMP              0 ****  ****    0 ROOT


##########                                Name:                  76
##########                DOCK_Rotatable_Bonds:                   4
##########                         Heavy_Atoms:                  20
##########                    Molecular_Weight:             271.359
##########                       Formal_Charge:         0.000500061
##########                     HBond_Acceptors:                   3
##########                        HBond_Donors:                   0
##########                    Descriptor_Score:           30.009987
##########          Footprint_Similarity_Score:            6.138638
##########                 desc_FPS_vdw_energy:          -30.323799
##########                  desc_FPS_es_energy:           -1.183941
##########              desc_FPS_vdw+es_energy:          -31.507740
##########                  desc_FPS_num_hbond:                   0
##########                    desc_FPS_vdw_fps:            4.890065
##########                     desc_FPS_es_fps:            1.248573
##########                     desc_FPS_hb_fps:            0.000000
##########              desc_FPS_vdw_fp_numres:                 219
##########               desc_FPS_es_fp_numres:                 219
##########               desc_FPS_hb_fp_numres:                 219
##########                 Pharmacophore_Score:           20.000000
##########              desc_FMS_num_match_tot:                   0
##########              desc_FMS_max_match_ref:                  10
##########              desc_FMS_max_match_mol:                   8
##########                 desc_FMS_match_rate:            4.000000
##########                desc_FMS_match_resid:            0.000000
##########    desc_FMS_num_hydrophobic_matched:                   0
##########          desc_FMS_num_donor_matched:                   0
##########       desc_FMS_num_acceptor_matched:                   0
##########       desc_FMS_num_aromatic_matched:                   0
##########       desc_FMS_num_positive_matched:                   0
##########       desc_FMS_num_negative_matched:                   0
##########           desc_FMS_num_ring_matched:                   0
########## Hungarian_Matching_Similarity_Score:            4.100820
##########       desc_HMS_num_unmtchd_hvy_atms:                  19
##########           desc_HMS_num_ref_hvy_atms:                  23
##########        desc_HMS_rmsd_mtchd_hvy_atms:            4.970385
##########               Property_Volume_Score:            0.229471
##########               desc_VOS_geometric_vo:            0.400289
##########                desc_VOS_hvy_atom_vo:            0.300154
##########            desc_VOS_pos_chrg_atm_vo:            0.239431
##########            desc_VOS_neg_chrg_atm_vo:            0.157451
##########         desc_VOS_hydrophobic_atm_vo:            0.232244
##########         desc_VOS_hydrophilic_atm_vo:            0.047255
##########           Internal_energy_repulsive:           11.096782

@<TRIPOS>MOLECULE
76
 41 43 1 0 0
SMALL
GASTEIGER


@<TRIPOS>ATOM
      1 O           8.0912   11.4600   43.7557 O.2     1  UNL1       -0.2450
      2 C           8.0068   12.2423   42.8277 C.2     1  UNL1        0.3395
      3 O           9.0587   12.5851   42.0374 O.3     1  UNL1       -0.4578
      4 C           6.7054   12.8390   42.4194 C.2     1  UNL1        0.0591
      5 C          10.4024   12.3409   42.5394 C.3     1  UNL1        0.1063
      6 C           5.6346   13.0123   43.4229 C.ar    1  UNL1       -0.0116
      7 C           6.5011   13.2003   41.1408 C.2     1  UNL1       -0.0841
      8 C          10.6248   13.0550   43.9007 C.3     1  UNL1        0.0000
      9 C          11.4772   12.7756   41.5085 C.3     1  UNL1        0.0000
     10 C           5.9690   13.3178   44.7438 C.ar    1  UNL1       -0.0538
     11 C           4.2971   12.8081   43.0798 C.ar    1  UNL1       -0.0538
     12 C          12.1306   13.0379   44.3197 C.3     1  UNL1        0.0138
     13 C          12.9025   12.8151   42.1540 C.3     1  UNL1        0.0138
     14 C           4.9749   13.4179   45.7144 C.ar    1  UNL1       -0.0612
     15 C           3.3019   12.9110   44.0506 C.ar    1  UNL1       -0.0612
     16 N          12.8675   12.0872   43.4484 N.3     1  UNL1       -0.2992
     17 C          12.8081   14.3936   44.0157 C.3     1  UNL1       -0.0358
     18 C          13.2925   14.2571   42.5598 C.3     1  UNL1       -0.0358
     19 C           3.6409   13.2133   45.3684 C.ar    1  UNL1       -0.0617
     20 C          14.1890   11.6670   43.9700 C.3     1  UNL1       -0.0122
     21 H          10.5295   11.2641   42.6866 H       1  UNL1        0.0735
     22 H           7.2663   13.0814   40.3790 H       1  UNL1        0.0543
     23 H           5.5544   13.6326   40.8244 H       1  UNL1        0.0543
     24 H          10.0373   12.5450   44.6665 H       1  UNL1        0.0316
     25 H          10.2454   14.0787   43.8467 H       1  UNL1        0.0316
     26 H          11.2138   13.7405   41.0697 H       1  UNL1        0.0316
     27 H          11.4786   12.0503   40.6921 H       1  UNL1        0.0316
     28 H           7.0106   13.4654   45.0201 H       1  UNL1        0.0624
     29 H           4.0297   12.5618   42.0549 H       1  UNL1        0.0624
     30 H          12.2179   12.7804   45.3791 H       1  UNL1        0.0464
     31 H          13.6346   12.3893   41.4624 H       1  UNL1        0.0464
     32 H           5.2418   13.6485   46.7429 H       1  UNL1        0.0618
     33 H           2.2614   12.7485   43.7812 H       1  UNL1        0.0618
     34 H          13.6676   14.5346   44.6760 H       1  UNL1        0.0281
     35 H          12.1380   15.2456   44.1501 H       1  UNL1        0.0281
     36 H          12.8470   15.0139   41.9103 H       1  UNL1        0.0281
     37 H          14.3780   14.3762   42.5204 H       1  UNL1        0.0281
     38 H           2.8654   13.2862   46.1272 H       1  UNL1        0.0618
     39 H          14.0567   11.1534   44.9258 H       1  UNL1        0.0391
     40 H          14.8516   12.5242   44.1165 H       1  UNL1        0.0391
     41 H          14.6562   10.9741   43.2652 H       1  UNL1        0.0391
@<TRIPOS>BOND
     1     1     2    2
     2     2     3    1
     3     2     4    1
     4     3     5    1
     5     4     6    1
     6     4     7    2
     7     5     8    1
     8     5     9    1
     9     6    10   ar
    10     6    11   ar
    11     8    12    1
    12     9    13    1
    13    10    14   ar
    14    11    15   ar
    15    12    16    1
    16    12    17    1
    17    13    18    1
    18    14    19   ar
    19    16    20    1
    20    13    16    1
    21    15    19   ar
    22    17    18    1
    23     5    21    1
    24     7    22    1
    25     7    23    1
    26     8    24    1
    27     8    25    1
    28     9    26    1
    29     9    27    1
    30    10    28    1
    31    11    29    1
    32    12    30    1
    33    13    31    1
    34    14    32    1
    35    15    33    1
    36    17    34    1
    37    17    35    1
    38    18    36    1
    39    18    37    1
    40    19    38    1
    41    20    39    1
    42    20    40    1
    43    20    41    1
@<TRIPOS>SUBSTRUCTURE
     1 UNL1        1 TEMP              0 ****  ****    0 ROOT


##########                                Name:                  77
##########                DOCK_Rotatable_Bonds:                   1
##########                         Heavy_Atoms:                  12
##########                    Molecular_Weight:             162.235
##########                       Formal_Charge:         0.000100013
##########                     HBond_Acceptors:                   2
##########                        HBond_Donors:                   0
##########                    Descriptor_Score:           40.633411
##########          Footprint_Similarity_Score:           11.355614
##########                 desc_FPS_vdw_energy:          -20.934704
##########                  desc_FPS_es_energy:           -0.273550
##########              desc_FPS_vdw+es_energy:          -21.208254
##########                  desc_FPS_num_hbond:                   0
##########                    desc_FPS_vdw_fps:            9.480846
##########                     desc_FPS_es_fps:            1.874768
##########                     desc_FPS_hb_fps:            0.000000
##########              desc_FPS_vdw_fp_numres:                 219
##########               desc_FPS_es_fp_numres:                 219
##########               desc_FPS_hb_fp_numres:                 219
##########                 Pharmacophore_Score:           20.000000
##########              desc_FMS_num_match_tot:                   0
##########              desc_FMS_max_match_ref:                  10
##########              desc_FMS_max_match_mol:                   4
##########                 desc_FMS_match_rate:            4.000000
##########                desc_FMS_match_resid:            0.000000
##########    desc_FMS_num_hydrophobic_matched:                   0
##########          desc_FMS_num_donor_matched:                   0
##########       desc_FMS_num_acceptor_matched:                   0
##########       desc_FMS_num_aromatic_matched:                   0
##########       desc_FMS_num_positive_matched:                   0
##########       desc_FMS_num_negative_matched:                   0
##########           desc_FMS_num_ring_matched:                   0
########## Hungarian_Matching_Similarity_Score:            9.277798
##########       desc_HMS_num_unmtchd_hvy_atms:                  23
##########           desc_HMS_num_ref_hvy_atms:                  23
##########        desc_HMS_rmsd_mtchd_hvy_atms:            9.277798
##########               Property_Volume_Score:            0.000000
##########               desc_VOS_geometric_vo:            0.000000
##########                desc_VOS_hvy_atom_vo:            0.000000
##########            desc_VOS_pos_chrg_atm_vo:            0.000000
##########            desc_VOS_neg_chrg_atm_vo:            0.000000
##########         desc_VOS_hydrophobic_atm_vo:            0.000000
##########         desc_VOS_hydrophilic_atm_vo:            0.000000
##########           Internal_energy_repulsive:            6.092018

@<TRIPOS>MOLECULE
77
 26 27 1 0 0
SMALL
GASTEIGER


@<TRIPOS>ATOM
      1 N          22.0066    7.4937   40.1979 N.ar    1  UNL1       -0.2629
      2 C          22.5071    7.8624   38.9965 C.ar    1  UNL1        0.0322
      3 C          21.9642    8.4279   41.1731 C.ar    1  UNL1        0.0276
      4 C          22.9690    9.1512   38.7149 C.ar    1  UNL1       -0.0122
      5 C          22.4121    9.7336   40.9844 C.ar    1  UNL1       -0.0433
      6 C          22.9179   10.1019   39.7406 C.ar    1  UNL1       -0.0542
      7 C          23.4838    9.4657   37.3032 C.3     1  UNL1        0.0368
      8 N          24.9482    9.3151   37.1570 N.3     1  UNL1       -0.2984
      9 C          22.9545    8.5201   36.2046 C.3     1  UNL1       -0.0320
     10 C          25.2105    7.8861   36.9231 C.3     1  UNL1       -0.0008
     11 C          25.7925    9.9461   38.1944 C.3     1  UNL1       -0.0122
     12 C          24.0393    7.4343   36.0334 C.3     1  UNL1       -0.0385
     13 H          22.5129    7.0854   38.2342 H       1  UNL1        0.0833
     14 H          21.5542    8.1039   42.1278 H       1  UNL1        0.0829
     15 H          22.3635   10.4554   41.7958 H       1  UNL1        0.0633
     16 H          23.2604   11.1202   39.5874 H       1  UNL1        0.0622
     17 H          23.2039   10.4924   37.0496 H       1  UNL1        0.0512
     18 H          22.8584    9.0761   35.2685 H       1  UNL1        0.0284
     19 H          21.9758    8.0985   36.4451 H       1  UNL1        0.0284
     20 H          25.1815    7.3425   37.8724 H       1  UNL1        0.0427
     21 H          26.1764    7.7278   36.4357 H       1  UNL1        0.0427
     22 H          25.5433   11.0078   38.2809 H       1  UNL1        0.0391
     23 H          26.8459    9.8554   37.9159 H       1  UNL1        0.0391
     24 H          25.6395    9.4614   39.1626 H       1  UNL1        0.0391
     25 H          24.3532    7.3778   34.9886 H       1  UNL1        0.0278
     26 H          23.6770    6.4506   36.3410 H       1  UNL1        0.0278
@<TRIPOS>BOND
     1     1     2   ar
     2     1     3   ar
     3     2     4   ar
     4     3     5   ar
     5     4     6   ar
     6     7     8    1
     7     7     9    1
     8     8    10    1
     9     8    11    1
    10     9    12    1
    11     5     6   ar
    12    10    12    1
    13     7     4    1
    14     2    13    1
    15     3    14    1
    16     5    15    1
    17     6    16    1
    18     7    17    1
    19     9    18    1
    20     9    19    1
    21    10    20    1
    22    10    21    1
    23    11    22    1
    24    11    23    1
    25    11    24    1
    26    12    25    1
    27    12    26    1
@<TRIPOS>SUBSTRUCTURE
     1 UNL1        1 TEMP              0 ****  ****    0 ROOT


##########                                Name:                  77
##########                DOCK_Rotatable_Bonds:                   1
##########                         Heavy_Atoms:                  12
##########                    Molecular_Weight:             162.235
##########                       Formal_Charge:         0.000100013
##########                     HBond_Acceptors:                   2
##########                        HBond_Donors:                   0
##########                    Descriptor_Score:           40.364487
##########          Footprint_Similarity_Score:           11.180996
##########                 desc_FPS_vdw_energy:          -20.859463
##########                  desc_FPS_es_energy:           -0.223510
##########              desc_FPS_vdw+es_energy:          -21.082972
##########                  desc_FPS_num_hbond:                   0
##########                    desc_FPS_vdw_fps:            9.308325
##########                     desc_FPS_es_fps:            1.872671
##########                     desc_FPS_hb_fps:            0.000000
##########              desc_FPS_vdw_fp_numres:                 219
##########               desc_FPS_es_fp_numres:                 219
##########               desc_FPS_hb_fp_numres:                 219
##########                 Pharmacophore_Score:           20.000000
##########              desc_FMS_num_match_tot:                   0
##########              desc_FMS_max_match_ref:                  10
##########              desc_FMS_max_match_mol:                   4
##########                 desc_FMS_match_rate:            4.000000
##########                desc_FMS_match_resid:            0.000000
##########    desc_FMS_num_hydrophobic_matched:                   0
##########          desc_FMS_num_donor_matched:                   0
##########       desc_FMS_num_acceptor_matched:                   0
##########       desc_FMS_num_aromatic_matched:                   0
##########       desc_FMS_num_positive_matched:                   0
##########       desc_FMS_num_negative_matched:                   0
##########           desc_FMS_num_ring_matched:                   0
########## Hungarian_Matching_Similarity_Score:            9.183492
##########       desc_HMS_num_unmtchd_hvy_atms:                  23
##########           desc_HMS_num_ref_hvy_atms:                  23
##########        desc_HMS_rmsd_mtchd_hvy_atms:            9.183491
##########               Property_Volume_Score:            0.000000
##########               desc_VOS_geometric_vo:            0.000000
##########                desc_VOS_hvy_atom_vo:            0.000000
##########            desc_VOS_pos_chrg_atm_vo:            0.000000
##########            desc_VOS_neg_chrg_atm_vo:            0.000000
##########         desc_VOS_hydrophobic_atm_vo:            0.000000
##########         desc_VOS_hydrophilic_atm_vo:            0.000000
##########           Internal_energy_repulsive:            5.975041

@<TRIPOS>MOLECULE
77
 26 27 1 0 0
SMALL
GASTEIGER


@<TRIPOS>ATOM
      1 N          21.9539    7.6074   40.2990 N.ar    1  UNL1       -0.2629
      2 C          22.4374    7.9732   39.0898 C.ar    1  UNL1        0.0322
      3 C          21.9734    8.5288   41.2871 C.ar    1  UNL1        0.0276
      4 C          22.9422    9.2468   38.8129 C.ar    1  UNL1       -0.0122
      5 C          22.4672    9.8186   41.1037 C.ar    1  UNL1       -0.0433
      6 C          22.9549   10.1843   39.8519 C.ar    1  UNL1       -0.0542
      7 C          23.4323    9.5608   37.3925 C.3     1  UNL1        0.0368
      8 N          24.8816    9.3347   37.2000 N.3     1  UNL1       -0.2984
      9 C          22.8212    8.6666   36.2933 C.3     1  UNL1       -0.0320
     10 C          25.0592    7.8986   36.9327 C.3     1  UNL1       -0.0008
     11 C          25.7884    9.8991   38.2229 C.3     1  UNL1       -0.0122
     12 C          23.8402    7.5278   36.0704 C.3     1  UNL1       -0.0385
     13 H          22.3929    7.2074   38.3175 H       1  UNL1        0.0833
     14 H          21.5757    8.2077   42.2479 H       1  UNL1        0.0829
     15 H          22.4680   10.5303   41.9255 H       1  UNL1        0.0633
     16 H          23.3331   11.1906   39.7030 H       1  UNL1        0.0622
     17 H          23.2014   10.6059   37.1658 H       1  UNL1        0.0512
     18 H          22.7284    9.2452   35.3706 H       1  UNL1        0.0284
     19 H          21.8284    8.2936   36.5552 H       1  UNL1        0.0284
     20 H          25.0282    7.3389   37.8725 H       1  UNL1        0.0427
     21 H          26.0007    7.6983   36.4140 H       1  UNL1        0.0427
     22 H          25.5997   10.9708   38.3359 H       1  UNL1        0.0391
     23 H          26.8269    9.7575   37.9116 H       1  UNL1        0.0391
     24 H          25.6373    9.4045   39.1864 H       1  UNL1        0.0391
     25 H          24.1204    7.4750   35.0158 H       1  UNL1        0.0278
     26 H          23.4341    6.5591   36.3709 H       1  UNL1        0.0278
@<TRIPOS>BOND
     1     1     2   ar
     2     1     3   ar
     3     2     4   ar
     4     3     5   ar
     5     4     6   ar
     6     7     8    1
     7     7     9    1
     8     8    10    1
     9     8    11    1
    10     9    12    1
    11     5     6   ar
    12    10    12    1
    13     7     4    1
    14     2    13    1
    15     3    14    1
    16     5    15    1
    17     6    16    1
    18     7    17    1
    19     9    18    1
    20     9    19    1
    21    10    20    1
    22    10    21    1
    23    11    22    1
    24    11    23    1
    25    11    24    1
    26    12    25    1
    27    12    26    1
@<TRIPOS>SUBSTRUCTURE
     1 UNL1        1 TEMP              0 ****  ****    0 ROOT


##########                                Name:                  77
##########                DOCK_Rotatable_Bonds:                   1
##########                         Heavy_Atoms:                  12
##########                    Molecular_Weight:             162.235
##########                       Formal_Charge:         0.000100013
##########                     HBond_Acceptors:                   2
##########                        HBond_Donors:                   0
##########                    Descriptor_Score:           41.812908
##########          Footprint_Similarity_Score:           12.018541
##########                 desc_FPS_vdw_energy:          -21.572866
##########                  desc_FPS_es_energy:           -0.121106
##########              desc_FPS_vdw+es_energy:          -21.693972
##########                  desc_FPS_num_hbond:                   0
##########                    desc_FPS_vdw_fps:           10.132464
##########                     desc_FPS_es_fps:            1.886077
##########                     desc_FPS_hb_fps:            0.000000
##########              desc_FPS_vdw_fp_numres:                 219
##########               desc_FPS_es_fp_numres:                 219
##########               desc_FPS_hb_fp_numres:                 219
##########                 Pharmacophore_Score:           20.000000
##########              desc_FMS_num_match_tot:                   0
##########              desc_FMS_max_match_ref:                  10
##########              desc_FMS_max_match_mol:                   4
##########                 desc_FMS_match_rate:            4.000000
##########                desc_FMS_match_resid:            0.000000
##########    desc_FMS_num_hydrophobic_matched:                   0
##########          desc_FMS_num_donor_matched:                   0
##########       desc_FMS_num_acceptor_matched:                   0
##########       desc_FMS_num_aromatic_matched:                   0
##########       desc_FMS_num_positive_matched:                   0
##########       desc_FMS_num_negative_matched:                   0
##########           desc_FMS_num_ring_matched:                   0
########## Hungarian_Matching_Similarity_Score:            9.794369
##########       desc_HMS_num_unmtchd_hvy_atms:                  23
##########           desc_HMS_num_ref_hvy_atms:                  23
##########        desc_HMS_rmsd_mtchd_hvy_atms:            9.794368
##########               Property_Volume_Score:            0.000000
##########               desc_VOS_geometric_vo:            0.000000
##########                desc_VOS_hvy_atom_vo:            0.000000
##########            desc_VOS_pos_chrg_atm_vo:            0.000000
##########            desc_VOS_neg_chrg_atm_vo:            0.000000
##########         desc_VOS_hydrophobic_atm_vo:            0.000000
##########         desc_VOS_hydrophilic_atm_vo:            0.000000
##########           Internal_energy_repulsive:            4.462293

@<TRIPOS>MOLECULE
77
 26 27 1 0 0
SMALL
GASTEIGER


@<TRIPOS>ATOM
      1 N          21.7201    7.5242   40.0184 N.ar    1  UNL1       -0.2629
      2 C          22.5358    7.3519   38.9532 C.ar    1  UNL1        0.0322
      3 C          21.7887    8.7019   40.6770 C.ar    1  UNL1        0.0276
      4 C          23.4300    8.3258   38.4998 C.ar    1  UNL1       -0.0122
      5 C          22.6572    9.7247   40.3015 C.ar    1  UNL1       -0.0433
      6 C          23.4860    9.5370   39.1986 C.ar    1  UNL1       -0.0542
      7 C          24.2826    8.0330   37.2572 C.3     1  UNL1        0.0368
      8 N          23.6736    8.5037   35.9939 N.3     1  UNL1       -0.2984
      9 C          25.6502    8.7473   37.2378 C.3     1  UNL1       -0.0320
     10 C          23.9996    9.9331   35.8678 C.3     1  UNL1       -0.0008
     11 C          22.2525    8.1622   35.7682 C.3     1  UNL1       -0.0122
     12 C          25.4334   10.0368   36.4160 C.3     1  UNL1       -0.0385
     13 H          22.4418    6.3954   38.4424 H       1  UNL1        0.0833
     14 H          21.1193    8.8135   41.5278 H       1  UNL1        0.0829
     15 H          22.6843   10.6571   40.8596 H       1  UNL1        0.0633
     16 H          24.1582   10.3344   38.8982 H       1  UNL1        0.0622
     17 H          24.4477    6.9534   37.1929 H       1  UNL1        0.0512
     18 H          26.3776    8.1157   36.7212 H       1  UNL1        0.0284
     19 H          26.0356    8.9502   38.2397 H       1  UNL1        0.0284
     20 H          23.3238   10.5250   36.4927 H       1  UNL1        0.0427
     21 H          23.9352   10.2716   34.8301 H       1  UNL1        0.0427
     22 H          22.1113    7.0811   35.8590 H       1  UNL1        0.0391
     23 H          21.9558    8.4707   34.7621 H       1  UNL1        0.0391
     24 H          21.6142    8.6700   36.4967 H       1  UNL1        0.0391
     25 H          26.1533   10.0854   35.5957 H       1  UNL1        0.0278
     26 H          25.5481   10.9315   37.0323 H       1  UNL1        0.0278
@<TRIPOS>BOND
     1     1     2   ar
     2     1     3   ar
     3     2     4   ar
     4     3     5   ar
     5     4     6   ar
     6     7     8    1
     7     7     9    1
     8     8    10    1
     9     8    11    1
    10     9    12    1
    11     5     6   ar
    12    10    12    1
    13     7     4    1
    14     2    13    1
    15     3    14    1
    16     5    15    1
    17     6    16    1
    18     7    17    1
    19     9    18    1
    20     9    19    1
    21    10    20    1
    22    10    21    1
    23    11    22    1
    24    11    23    1
    25    11    24    1
    26    12    25    1
    27    12    26    1
@<TRIPOS>SUBSTRUCTURE
     1 UNL1        1 TEMP              0 ****  ****    0 ROOT


##########                                Name:                  78
##########                DOCK_Rotatable_Bonds:                   6
##########                         Heavy_Atoms:                  21
##########                    Molecular_Weight:             289.374
##########                       Formal_Charge:         0.000300266
##########                     HBond_Acceptors:                   4
##########                        HBond_Donors:                   1
##########                    Descriptor_Score:           32.321098
##########          Footprint_Similarity_Score:            7.725027
##########                 desc_FPS_vdw_energy:          -35.889690
##########                  desc_FPS_es_energy:           -0.287689
##########              desc_FPS_vdw+es_energy:          -36.177380
##########                  desc_FPS_num_hbond:                   0
##########                    desc_FPS_vdw_fps:            6.483681
##########                     desc_FPS_es_fps:            1.241346
##########                     desc_FPS_hb_fps:            0.000000
##########              desc_FPS_vdw_fp_numres:                 219
##########               desc_FPS_es_fp_numres:                 219
##########               desc_FPS_hb_fp_numres:                 219
##########                 Pharmacophore_Score:           20.000000
##########              desc_FMS_num_match_tot:                   0
##########              desc_FMS_max_match_ref:                  10
##########              desc_FMS_max_match_mol:                   9
##########                 desc_FMS_match_rate:            4.000000
##########                desc_FMS_match_resid:            0.000000
##########    desc_FMS_num_hydrophobic_matched:                   0
##########          desc_FMS_num_donor_matched:                   0
##########       desc_FMS_num_acceptor_matched:                   0
##########       desc_FMS_num_aromatic_matched:                   0
##########       desc_FMS_num_positive_matched:                   0
##########       desc_FMS_num_negative_matched:                   0
##########           desc_FMS_num_ring_matched:                   0
########## Hungarian_Matching_Similarity_Score:            4.803625
##########       desc_HMS_num_unmtchd_hvy_atms:                  24
##########           desc_HMS_num_ref_hvy_atms:                  23
##########        desc_HMS_rmsd_mtchd_hvy_atms:            4.586233
##########               Property_Volume_Score:            0.207552
##########               desc_VOS_geometric_vo:            0.380917
##########                desc_VOS_hvy_atom_vo:            0.282777
##########            desc_VOS_pos_chrg_atm_vo:            0.197576
##########            desc_VOS_neg_chrg_atm_vo:            0.151606
##########         desc_VOS_hydrophobic_atm_vo:            0.224565
##########         desc_VOS_hydrophilic_atm_vo:            0.007871
##########           Internal_energy_repulsive:            8.587636

@<TRIPOS>MOLECULE
78
 44 46 1 0 0
SMALL
GASTEIGER


@<TRIPOS>ATOM
      1 O           8.0817   10.2829   43.4855 O.2     1  UNL1       -0.2501
      2 C           7.7031   11.3740   43.1018 C.2     1  UNL1        0.3171
      3 O           8.5332   12.3827   42.7332 O.3     1  UNL1       -0.4608
      4 C           6.2272   11.7390   42.9831 C.3     1  UNL1        0.1044
      5 C           9.9456   12.2811   43.0702 C.3     1  UNL1        0.1059
      6 C           5.6544   12.2781   44.2962 C.ar    1  UNL1       -0.0315
      7 C           5.9972   12.7706   41.8531 C.3     1  UNL1        0.0612
      8 C          10.3334   13.2532   44.2212 C.3     1  UNL1        0.0000
      9 C          10.8239   12.5405   41.8173 C.3     1  UNL1        0.0000
     10 C           6.1160   13.4742   44.8608 C.ar    1  UNL1       -0.0577
     11 C           4.5976   11.6042   44.9153 C.ar    1  UNL1       -0.0577
     12 O           6.4755   12.2801   40.5966 O.3     1  UNL1       -0.3939
     13 C          11.8835   13.3703   44.3823 C.3     1  UNL1        0.0138
     14 C          12.3240   12.7647   42.1990 C.3     1  UNL1        0.0138
     15 C           5.5406   13.9761   46.0267 C.ar    1  UNL1       -0.0615
     16 C           4.0167   12.1108   46.0773 C.ar    1  UNL1       -0.0615
     17 N          12.5399   12.2981   43.5920 N.3     1  UNL1       -0.2992
     18 C          12.4114   14.6675   43.7292 C.3     1  UNL1       -0.0358
     19 C          12.6700   14.2731   42.2637 C.3     1  UNL1       -0.0358
     20 C           4.4891   13.2961   46.6350 C.ar    1  UNL1       -0.0617
     21 C          13.9541   12.0407   43.9506 C.3     1  UNL1       -0.0122
     22 H           5.6810   10.8297   42.7177 H       1  UNL1        0.0485
     23 H          10.1450   11.2564   43.4001 H       1  UNL1        0.0735
     24 H           6.5068   13.7068   42.0982 H       1  UNL1        0.0568
     25 H           4.9266   12.9734   41.7664 H       1  UNL1        0.0568
     26 H           9.9146   12.8843   45.1590 H       1  UNL1        0.0316
     27 H           9.8831   14.2330   44.0433 H       1  UNL1        0.0316
     28 H          10.4326   13.3894   41.2511 H       1  UNL1        0.0316
     29 H          10.7514   11.6694   41.1625 H       1  UNL1        0.0316
     30 H           6.9210   14.0356   44.3943 H       1  UNL1        0.0621
     31 H           4.2088   10.6846   44.4846 H       1  UNL1        0.0621
     32 H           7.3790   12.6216   40.4589 H       1  UNL1        0.2094
     33 H          12.1508   13.3234   45.4420 H       1  UNL1        0.0464
     34 H          12.9693   12.2443   41.4855 H       1  UNL1        0.0464
     35 H           5.9073   14.9052   46.4565 H       1  UNL1        0.0618
     36 H           3.1889   11.5837   46.5452 H       1  UNL1        0.0618
     37 H          13.3513   14.9644   44.2019 H       1  UNL1        0.0281
     38 H          11.7137   15.5036   43.8161 H       1  UNL1        0.0281
     39 H          12.0764   14.8732   41.5701 H       1  UNL1        0.0281
     40 H          13.7251   14.4255   42.0233 H       1  UNL1        0.0281
     41 H           4.0336   13.6937   47.5384 H       1  UNL1        0.0618
     42 H          14.0120   11.7154   44.9930 H       1  UNL1        0.0391
     43 H          14.5677   12.9358   43.8236 H       1  UNL1        0.0391
     44 H          14.3525   11.2447   43.3157 H       1  UNL1        0.0391
@<TRIPOS>BOND
     1     1     2    2
     2     2     3    1
     3     2     4    1
     4     3     5    1
     5     4     6    1
     6     4     7    1
     7     5     8    1
     8     5     9    1
     9     6    10   ar
    10     6    11   ar
    11     7    12    1
    12     8    13    1
    13     9    14    1
    14    10    15   ar
    15    11    16   ar
    16    13    17    1
    17    13    18    1
    18    14    19    1
    19    15    20   ar
    20    17    21    1
    21    14    17    1
    22    16    20   ar
    23    18    19    1
    24     4    22    1
    25     5    23    1
    26     7    24    1
    27     7    25    1
    28     8    26    1
    29     8    27    1
    30     9    28    1
    31     9    29    1
    32    10    30    1
    33    11    31    1
    34    12    32    1
    35    13    33    1
    36    14    34    1
    37    15    35    1
    38    16    36    1
    39    18    37    1
    40    18    38    1
    41    19    39    1
    42    19    40    1
    43    20    41    1
    44    21    42    1
    45    21    43    1
    46    21    44    1
@<TRIPOS>SUBSTRUCTURE
     1 UNL1        1 TEMP              0 ****  ****    0 ROOT


##########                                Name:                  78
##########                DOCK_Rotatable_Bonds:                   6
##########                         Heavy_Atoms:                  21
##########                    Molecular_Weight:             289.374
##########                       Formal_Charge:         0.000300266
##########                     HBond_Acceptors:                   4
##########                        HBond_Donors:                   1
##########                    Descriptor_Score:           30.525284
##########          Footprint_Similarity_Score:            6.541076
##########                 desc_FPS_vdw_energy:          -33.663792
##########                  desc_FPS_es_energy:           -2.416710
##########              desc_FPS_vdw+es_energy:          -36.080502
##########                  desc_FPS_num_hbond:                   2
##########                    desc_FPS_vdw_fps:            5.290749
##########                     desc_FPS_es_fps:            1.250327
##########                     desc_FPS_hb_fps:            1.414214
##########              desc_FPS_vdw_fp_numres:                 219
##########               desc_FPS_es_fp_numres:                 219
##########               desc_FPS_hb_fp_numres:                 219
##########                 Pharmacophore_Score:           20.000000
##########              desc_FMS_num_match_tot:                   0
##########              desc_FMS_max_match_ref:                  10
##########              desc_FMS_max_match_mol:                   9
##########                 desc_FMS_match_rate:            4.000000
##########                desc_FMS_match_resid:            0.000000
##########    desc_FMS_num_hydrophobic_matched:                   0
##########          desc_FMS_num_donor_matched:                   0
##########       desc_FMS_num_acceptor_matched:                   0
##########       desc_FMS_num_aromatic_matched:                   0
##########       desc_FMS_num_positive_matched:                   0
##########       desc_FMS_num_negative_matched:                   0
##########           desc_FMS_num_ring_matched:                   0
########## Hungarian_Matching_Similarity_Score:            4.245862
##########       desc_HMS_num_unmtchd_hvy_atms:                  24
##########           desc_HMS_num_ref_hvy_atms:                  23
##########        desc_HMS_rmsd_mtchd_hvy_atms:            4.028471
##########               Property_Volume_Score:            0.261656
##########               desc_VOS_geometric_vo:            0.463205
##########                desc_VOS_hvy_atom_vo:            0.364821
##########            desc_VOS_pos_chrg_atm_vo:            0.228614
##########            desc_VOS_neg_chrg_atm_vo:            0.174431
##########         desc_VOS_hydrophobic_atm_vo:            0.289506
##########         desc_VOS_hydrophilic_atm_vo:            0.049359
##########           Internal_energy_repulsive:           11.954271

@<TRIPOS>MOLECULE
78
 44 46 1 0 0
SMALL
GASTEIGER


@<TRIPOS>ATOM
      1 O           8.3017   14.0790   41.8557 O.2     1  UNL1       -0.2501
      2 C           8.2519   12.9854   42.3871 C.2     1  UNL1        0.3171
      3 O           9.3416   12.2822   42.7880 O.3     1  UNL1       -0.4608
      4 C           6.9371   12.2681   42.6744 C.3     1  UNL1        0.1044
      5 C          10.6513   12.9089   42.6857 C.3     1  UNL1        0.1059
      6 C           6.1971   12.8686   43.8721 C.ar    1  UNL1       -0.0315
      7 C           6.0131   12.2794   41.4334 C.3     1  UNL1        0.0612
      8 C          11.7879   11.8517   42.5820 C.3     1  UNL1        0.0000
      9 C          10.8961   13.8573   43.8896 C.3     1  UNL1        0.0000
     10 C           4.7998   12.8288   43.9654 C.ar    1  UNL1       -0.0577
     11 C           6.9284   13.4078   44.9345 C.ar    1  UNL1       -0.0577
     12 O           6.6433   11.6542   40.3107 O.3     1  UNL1       -0.3939
     13 C          13.1981   12.4973   42.7753 C.3     1  UNL1        0.0138
     14 C          12.3962   14.2882   43.9906 C.3     1  UNL1        0.0138
     15 C           4.1500   13.3302   45.0916 C.ar    1  UNL1       -0.0615
     16 C           6.2784   13.9021   46.0648 C.ar    1  UNL1       -0.0615
     17 N          13.0732   13.9753   42.7066 N.3     1  UNL1       -0.2992
     18 C          13.7280   12.2511   44.2059 C.3     1  UNL1       -0.0358
     19 C          13.1622   13.4259   45.0244 C.3     1  UNL1       -0.0358
     20 C           4.8887   13.8655   46.1433 C.ar    1  UNL1       -0.0617
     21 C          14.3483   14.6957   42.4829 C.3     1  UNL1       -0.0122
     22 H           7.1716   11.2248   42.9033 H       1  UNL1        0.0485
     23 H          10.6660   13.5236   41.7799 H       1  UNL1        0.0735
     24 H           5.7500   13.3097   41.1780 H       1  UNL1        0.0568
     25 H           5.0936   11.7366   41.6671 H       1  UNL1        0.0568
     26 H          11.7536   11.3833   41.5970 H       1  UNL1        0.0316
     27 H          11.6183   11.0557   43.3114 H       1  UNL1        0.0316
     28 H          10.5607   13.3852   44.8164 H       1  UNL1        0.0316
     29 H          10.2799   14.7487   43.7535 H       1  UNL1        0.0316
     30 H           4.2009   12.3970   43.1681 H       1  UNL1        0.0621
     31 H           8.0148   13.4313   44.8938 H       1  UNL1        0.0621
     32 H           6.0180   11.6685   39.5619 H       1  UNL1        0.2094
     33 H          13.8907   12.1069   42.0240 H       1  UNL1        0.0464
     34 H          12.4601   15.3509   44.2417 H       1  UNL1        0.0464
     35 H           3.0649   13.2947   45.1531 H       1  UNL1        0.0618
     36 H           6.8575   14.3104   46.8894 H       1  UNL1        0.0618
     37 H          14.8204   12.2929   44.2088 H       1  UNL1        0.0281
     38 H          13.4285   11.2818   44.6112 H       1  UNL1        0.0281
     39 H          12.5254   13.0820   45.8429 H       1  UNL1        0.0281
     40 H          13.9843   14.0019   45.4562 H       1  UNL1        0.0281
     41 H           4.3818   14.2467   47.0262 H       1  UNL1        0.0618
     42 H          14.7749   14.3915   41.5232 H       1  UNL1        0.0391
     43 H          15.0706   14.4846   43.2751 H       1  UNL1        0.0391
     44 H          14.1590   15.7721   42.4534 H       1  UNL1        0.0391
@<TRIPOS>BOND
     1     1     2    2
     2     2     3    1
     3     2     4    1
     4     3     5    1
     5     4     6    1
     6     4     7    1
     7     5     8    1
     8     5     9    1
     9     6    10   ar
    10     6    11   ar
    11     7    12    1
    12     8    13    1
    13     9    14    1
    14    10    15   ar
    15    11    16   ar
    16    13    17    1
    17    13    18    1
    18    14    19    1
    19    15    20   ar
    20    17    21    1
    21    14    17    1
    22    16    20   ar
    23    18    19    1
    24     4    22    1
    25     5    23    1
    26     7    24    1
    27     7    25    1
    28     8    26    1
    29     8    27    1
    30     9    28    1
    31     9    29    1
    32    10    30    1
    33    11    31    1
    34    12    32    1
    35    13    33    1
    36    14    34    1
    37    15    35    1
    38    16    36    1
    39    18    37    1
    40    18    38    1
    41    19    39    1
    42    19    40    1
    43    20    41    1
    44    21    42    1
    45    21    43    1
    46    21    44    1
@<TRIPOS>SUBSTRUCTURE
     1 UNL1        1 TEMP              0 ****  ****    0 ROOT


##########                                Name:                  78
##########                DOCK_Rotatable_Bonds:                   6
##########                         Heavy_Atoms:                  21
##########                    Molecular_Weight:             289.374
##########                       Formal_Charge:         0.000300266
##########                     HBond_Acceptors:                   4
##########                        HBond_Donors:                   1
##########                    Descriptor_Score:           32.140606
##########          Footprint_Similarity_Score:            7.618089
##########                 desc_FPS_vdw_energy:          -34.215748
##########                  desc_FPS_es_energy:           -0.917742
##########              desc_FPS_vdw+es_energy:          -35.133492
##########                  desc_FPS_num_hbond:                   0
##########                    desc_FPS_vdw_fps:            6.259159
##########                     desc_FPS_es_fps:            1.358930
##########                     desc_FPS_hb_fps:            0.000000
##########              desc_FPS_vdw_fp_numres:                 219
##########               desc_FPS_es_fp_numres:                 219
##########               desc_FPS_hb_fp_numres:                 219
##########                 Pharmacophore_Score:           20.000000
##########              desc_FMS_num_match_tot:                   0
##########              desc_FMS_max_match_ref:                  10
##########              desc_FMS_max_match_mol:                   9
##########                 desc_FMS_match_rate:            4.000000
##########                desc_FMS_match_resid:            0.000000
##########    desc_FMS_num_hydrophobic_matched:                   0
##########          desc_FMS_num_donor_matched:                   0
##########       desc_FMS_num_acceptor_matched:                   0
##########       desc_FMS_num_aromatic_matched:                   0
##########       desc_FMS_num_positive_matched:                   0
##########       desc_FMS_num_negative_matched:                   0
##########           desc_FMS_num_ring_matched:                   0
########## Hungarian_Matching_Similarity_Score:            4.730160
##########       desc_HMS_num_unmtchd_hvy_atms:                  24
##########           desc_HMS_num_ref_hvy_atms:                  23
##########        desc_HMS_rmsd_mtchd_hvy_atms:            4.512769
##########               Property_Volume_Score:            0.207645
##########               desc_VOS_geometric_vo:            0.376303
##########                desc_VOS_hvy_atom_vo:            0.278290
##########            desc_VOS_pos_chrg_atm_vo:            0.195664
##########            desc_VOS_neg_chrg_atm_vo:            0.151214
##########         desc_VOS_hydrophobic_atm_vo:            0.223252
##########         desc_VOS_hydrophilic_atm_vo:            0.021145
##########           Internal_energy_repulsive:            8.213130

@<TRIPOS>MOLECULE
78
 44 46 1 0 0
SMALL
GASTEIGER


@<TRIPOS>ATOM
      1 O           8.0030   10.2313   43.4905 O.2     1  UNL1       -0.2501
      2 C           7.7221   11.2395   42.8697 C.2     1  UNL1        0.3171
      3 O           8.6369   12.0558   42.2870 O.3     1  UNL1       -0.4608
      4 C           6.2852   11.7081   42.6658 C.3     1  UNL1        0.1044
      5 C           9.9904   12.0793   42.8219 C.3     1  UNL1        0.1059
      6 C           5.6592   12.2415   43.9567 C.ar    1  UNL1       -0.0315
      7 C           6.2028   12.7896   41.5624 C.3     1  UNL1        0.0612
      8 C          10.1261   13.0879   43.9986 C.3     1  UNL1        0.0000
      9 C          11.0126   12.4072   41.7012 C.3     1  UNL1        0.0000
     10 C           4.7195   11.4942   44.6787 C.ar    1  UNL1       -0.0577
     11 C           6.0818   13.4708   44.4711 C.ar    1  UNL1       -0.0577
     12 O           4.8522   13.2118   41.3485 O.3     1  UNL1       -0.3939
     13 C          11.6219   13.3402   44.3749 C.3     1  UNL1        0.0138
     14 C          12.4185   12.7632   42.2869 C.3     1  UNL1        0.0138
     15 C           4.2053   11.9744   45.8817 C.ar    1  UNL1       -0.0615
     16 C           5.5732   13.9472   45.6788 C.ar    1  UNL1       -0.0615
     17 N          12.4731   12.3248   43.7046 N.3     1  UNL1       -0.2992
     18 C          12.1246   14.6748   43.7799 C.3     1  UNL1       -0.0358
     19 C          12.6218   14.2963   42.3729 C.3     1  UNL1       -0.0358
     20 C           4.6330   13.2003   46.3840 C.ar    1  UNL1       -0.0617
     21 C          13.8386   12.1934   44.2639 C.3     1  UNL1       -0.0122
     22 H           5.7002   10.8474   42.3303 H       1  UNL1        0.0485
     23 H          10.2276   11.0777   43.1949 H       1  UNL1        0.0735
     24 H           6.6156   12.3971   40.6288 H       1  UNL1        0.0568
     25 H           6.7976   13.6554   41.8651 H       1  UNL1        0.0568
     26 H           9.6112   12.6891   44.8742 H       1  UNL1        0.0316
     27 H           9.6238   14.0237   43.7414 H       1  UNL1        0.0316
     28 H          10.6349   13.2156   41.0703 H       1  UNL1        0.0316
     29 H          11.1086   11.5294   41.0584 H       1  UNL1        0.0316
     30 H           4.3850   10.5247   44.3197 H       1  UNL1        0.0621
     31 H           6.8251   14.0594   43.9387 H       1  UNL1        0.0621
     32 H           4.8452   13.8539   40.6139 H       1  UNL1        0.2094
     33 H          11.7386   13.3227   45.4625 H       1  UNL1        0.0464
     34 H          13.2009   12.2969   41.6812 H       1  UNL1        0.0464
     35 H           3.4759   11.3862   46.4336 H       1  UNL1        0.0618
     36 H           5.9160   14.9000   46.0745 H       1  UNL1        0.0618
     37 H          12.9590   15.0550   44.3752 H       1  UNL1        0.0281
     38 H          11.3529   15.4475   43.7524 H       1  UNL1        0.0281
     39 H          12.0840   14.8386   41.5918 H       1  UNL1        0.0281
     40 H          13.6835   14.5385   42.2813 H       1  UNL1        0.0281
     41 H           4.2395   13.5693   47.3278 H       1  UNL1        0.0618
     42 H          13.7752   11.8802   45.3096 H       1  UNL1        0.0391
     43 H          14.3854   13.1378   44.2089 H       1  UNL1        0.0391
     44 H          14.3898   11.4316   43.7059 H       1  UNL1        0.0391
@<TRIPOS>BOND
     1     1     2    2
     2     2     3    1
     3     2     4    1
     4     3     5    1
     5     4     6    1
     6     4     7    1
     7     5     8    1
     8     5     9    1
     9     6    10   ar
    10     6    11   ar
    11     7    12    1
    12     8    13    1
    13     9    14    1
    14    10    15   ar
    15    11    16   ar
    16    13    17    1
    17    13    18    1
    18    14    19    1
    19    15    20   ar
    20    17    21    1
    21    14    17    1
    22    16    20   ar
    23    18    19    1
    24     4    22    1
    25     5    23    1
    26     7    24    1
    27     7    25    1
    28     8    26    1
    29     8    27    1
    30     9    28    1
    31     9    29    1
    32    10    30    1
    33    11    31    1
    34    12    32    1
    35    13    33    1
    36    14    34    1
    37    15    35    1
    38    16    36    1
    39    18    37    1
    40    18    38    1
    41    19    39    1
    42    19    40    1
    43    20    41    1
    44    21    42    1
    45    21    43    1
    46    21    44    1
@<TRIPOS>SUBSTRUCTURE
     1 UNL1        1 TEMP              0 ****  ****    0 ROOT


##########                                Name:                  84
##########                DOCK_Rotatable_Bonds:                   4
##########                         Heavy_Atoms:                  20
##########                    Molecular_Weight:             270.241
##########                       Formal_Charge:        -2.98023e-08
##########                     HBond_Acceptors:                   5
##########                        HBond_Donors:                   3
##########                    Descriptor_Score:           40.810566
##########          Footprint_Similarity_Score:           12.896823
##########                 desc_FPS_vdw_energy:          -29.682207
##########                  desc_FPS_es_energy:           -2.710406
##########              desc_FPS_vdw+es_energy:          -32.392612
##########                  desc_FPS_num_hbond:                   1
##########                    desc_FPS_vdw_fps:           10.538964
##########                     desc_FPS_es_fps:            2.357859
##########                     desc_FPS_hb_fps:            1.000000
##########              desc_FPS_vdw_fp_numres:                 219
##########               desc_FPS_es_fp_numres:                 219
##########               desc_FPS_hb_fp_numres:                 219
##########                 Pharmacophore_Score:           20.000000
##########              desc_FMS_num_match_tot:                   0
##########              desc_FMS_max_match_ref:                  10
##########              desc_FMS_max_match_mol:                  11
##########                 desc_FMS_match_rate:            4.000000
##########                desc_FMS_match_resid:            0.000000
##########    desc_FMS_num_hydrophobic_matched:                   0
##########          desc_FMS_num_donor_matched:                   0
##########       desc_FMS_num_acceptor_matched:                   0
##########       desc_FMS_num_aromatic_matched:                   0
##########       desc_FMS_num_positive_matched:                   0
##########       desc_FMS_num_negative_matched:                   0
##########           desc_FMS_num_ring_matched:                   0
########## Hungarian_Matching_Similarity_Score:            7.913741
##########       desc_HMS_num_unmtchd_hvy_atms:                   9
##########           desc_HMS_num_ref_hvy_atms:                  23
##########        desc_HMS_rmsd_mtchd_hvy_atms:           10.957219
##########               Property_Volume_Score:            0.000000
##########               desc_VOS_geometric_vo:            0.000000
##########                desc_VOS_hvy_atom_vo:            0.000000
##########            desc_VOS_pos_chrg_atm_vo:            0.000000
##########            desc_VOS_neg_chrg_atm_vo:            0.000000
##########         desc_VOS_hydrophobic_atm_vo:            0.000000
##########         desc_VOS_hydrophilic_atm_vo:            0.000000
##########           Internal_energy_repulsive:           12.295799

@<TRIPOS>MOLECULE
84
 30 32 1 0 0
SMALL
GASTEIGER


@<TRIPOS>ATOM
      1 O          22.4045   10.0800   43.0585 O.2     1  UNL1       -0.2864
      2 C          22.7612   10.5512   41.9939 C.2     1  UNL1        0.2015
      3 C          22.7701    9.7035   40.7484 C.ar    1  UNL1        0.0745
      4 C          23.1987   11.9899   41.9037 C.ar    1  UNL1        0.0745
      5 C          22.3584    8.3574   40.7831 C.ar    1  UNL1        0.1287
      6 C          23.1948   10.2502   39.5307 C.ar    1  UNL1        0.0369
      7 C          23.2086   12.8186   43.0430 C.ar    1  UNL1        0.1283
      8 C          23.6020   12.5243   40.6726 C.ar    1  UNL1        0.0366
      9 O          21.9229    7.7673   41.9363 O.3     1  UNL1       -0.5060
     10 C          22.3826    7.5796   39.6273 C.ar    1  UNL1       -0.0141
     11 C          23.6259   11.6815   39.4345 C.2     1  UNL1        0.1947
     12 C          23.2197    9.4541   38.3801 C.ar    1  UNL1       -0.0446
     13 O          22.8445   12.3544   44.2754 O.3     1  UNL1       -0.5060
     14 C          23.5996   14.1519   42.9441 C.ar    1  UNL1       -0.0194
     15 C          23.9933   13.8657   40.5896 C.ar    1  UNL1       -0.0500
     16 C          22.8171    8.1215   38.4211 C.ar    1  UNL1       -0.0180
     17 O          23.9876   12.1507   38.3725 O.2     1  UNL1       -0.2866
     18 C          23.9890   14.6770   41.7184 C.ar    1  UNL1       -0.0576
     19 C          22.8651    7.2694   37.1638 C.3     1  UNL1        0.0694
     20 O          22.5801    8.0645   36.0127 O.3     1  UNL1       -0.3904
     21 H          21.5755    6.8649   41.7102 H       1  UNL1        0.2922
     22 H          22.0629    6.5406   39.6723 H       1  UNL1        0.0658
     23 H          23.5556    9.8724   37.4332 H       1  UNL1        0.0628
     24 H          22.6605   11.3831   44.1959 H       1  UNL1        0.2922
     25 H          23.6012   14.7864   43.8278 H       1  UNL1        0.0654
     26 H          24.3045   14.2921   39.6384 H       1  UNL1        0.0625
     27 H          24.2921   15.7186   41.6430 H       1  UNL1        0.0619
     28 H          22.1386    6.4538   37.2200 H       1  UNL1        0.0607
     29 H          23.8598    6.8290   37.0509 H       1  UNL1        0.0607
     30 H          21.7075    8.4814   36.1294 H       1  UNL1        0.2098
@<TRIPOS>BOND
     1     1     2    2
     2     2     3    1
     3     2     4    1
     4     3     5   ar
     5     3     6   ar
     6     4     7   ar
     7     4     8   ar
     8     5     9    1
     9     5    10   ar
    10     6    11    1
    11     6    12   ar
    12     7    13    1
    13     7    14   ar
    14     8    15   ar
    15    10    16   ar
    16    11    17    2
    17    14    18   ar
    18    16    19    1
    19    19    20    1
    20     8    11    1
    21    12    16   ar
    22    15    18   ar
    23     9    21    1
    24    10    22    1
    25    12    23    1
    26    13    24    1
    27    14    25    1
    28    15    26    1
    29    18    27    1
    30    19    28    1
    31    19    29    1
    32    20    30    1
@<TRIPOS>SUBSTRUCTURE
     1 UNL1        1 TEMP              0 ****  ****    0 ROOT


##########                                Name:                  84
##########                DOCK_Rotatable_Bonds:                   4
##########                         Heavy_Atoms:                  20
##########                    Molecular_Weight:             270.241
##########                       Formal_Charge:        -2.98023e-08
##########                     HBond_Acceptors:                   5
##########                        HBond_Donors:                   3
##########                    Descriptor_Score:           40.946583
##########          Footprint_Similarity_Score:           13.045223
##########                 desc_FPS_vdw_energy:          -29.854870
##########                  desc_FPS_es_energy:           -2.602987
##########              desc_FPS_vdw+es_energy:          -32.457855
##########                  desc_FPS_num_hbond:                   2
##########                    desc_FPS_vdw_fps:           10.674589
##########                     desc_FPS_es_fps:            2.370634
##########                     desc_FPS_hb_fps:            1.414214
##########              desc_FPS_vdw_fp_numres:                 219
##########               desc_FPS_es_fp_numres:                 219
##########               desc_FPS_hb_fp_numres:                 219
##########                 Pharmacophore_Score:           20.000000
##########              desc_FMS_num_match_tot:                   0
##########              desc_FMS_max_match_ref:                  10
##########              desc_FMS_max_match_mol:                  11
##########                 desc_FMS_match_rate:            4.000000
##########                desc_FMS_match_resid:            0.000000
##########    desc_FMS_num_hydrophobic_matched:                   0
##########          desc_FMS_num_donor_matched:                   0
##########       desc_FMS_num_acceptor_matched:                   0
##########       desc_FMS_num_aromatic_matched:                   0
##########       desc_FMS_num_positive_matched:                   0
##########       desc_FMS_num_negative_matched:                   0
##########           desc_FMS_num_ring_matched:                   0
########## Hungarian_Matching_Similarity_Score:            7.901359
##########       desc_HMS_num_unmtchd_hvy_atms:                   9
##########           desc_HMS_num_ref_hvy_atms:                  23
##########        desc_HMS_rmsd_mtchd_hvy_atms:           10.944837
##########               Property_Volume_Score:            0.000000
##########               desc_VOS_geometric_vo:            0.000000
##########                desc_VOS_hvy_atom_vo:            0.000000
##########            desc_VOS_pos_chrg_atm_vo:            0.000000
##########            desc_VOS_neg_chrg_atm_vo:            0.000000
##########         desc_VOS_hydrophobic_atm_vo:            0.000000
##########         desc_VOS_hydrophilic_atm_vo:            0.000000
##########           Internal_energy_repulsive:           12.382937

@<TRIPOS>MOLECULE
84
 30 32 1 0 0
SMALL
GASTEIGER


@<TRIPOS>ATOM
      1 O          22.4073   10.1995   43.0752 O.2     1  UNL1       -0.2864
      2 C          22.7643   10.6363   41.9961 C.2     1  UNL1        0.2015
      3 C          22.7611    9.7528   40.7758 C.ar    1  UNL1        0.0745
      4 C          23.2142   12.0678   41.8627 C.ar    1  UNL1        0.0745
      5 C          22.3376    8.4120   40.8510 C.ar    1  UNL1        0.1287
      6 C          23.1862   10.2600   39.5413 C.ar    1  UNL1        0.0369
      7 C          23.2357   12.9291   42.9774 C.ar    1  UNL1        0.1283
      8 C          23.6178   12.5625   40.6152 C.ar    1  UNL1        0.0366
      9 O          21.9010    7.8596   42.0223 O.3     1  UNL1       -0.5060
     10 C          22.3506    7.6008   39.7183 C.ar    1  UNL1       -0.0141
     11 C          23.6296   11.6840   39.4021 C.2     1  UNL1        0.1947
     12 C          23.1998    9.4307   38.4143 C.ar    1  UNL1       -0.0446
     13 O          22.8719   12.5042   44.2240 O.3     1  UNL1       -0.5060
     14 C          23.6381   14.2554   42.8384 C.ar    1  UNL1       -0.0194
     15 C          24.0207   13.8974   40.4919 C.ar    1  UNL1       -0.0500
     16 C          22.7855    8.1035   38.4953 C.ar    1  UNL1       -0.0180
     17 O          23.9917   12.1189   38.3256 O.2     1  UNL1       -0.2866
     18 C          24.0277   14.7411   41.5967 C.ar    1  UNL1       -0.0576
     19 C          22.8213    7.2148   37.2632 C.3     1  UNL1        0.0694
     20 O          22.5789    7.9860   36.0863 O.3     1  UNL1       -0.3904
     21 H          21.6847    6.9053   41.8529 H       1  UNL1        0.2922
     22 H          22.0218    6.5665   39.7944 H       1  UNL1        0.0658
     23 H          23.5359    9.8182   37.4544 H       1  UNL1        0.0628
     24 H          22.5981   11.5533   44.1567 H       1  UNL1        0.2922
     25 H          23.6486   14.9152   43.7032 H       1  UNL1        0.0654
     26 H          24.3322   14.2932   39.5277 H       1  UNL1        0.0625
     27 H          24.3398   15.7773   41.4900 H       1  UNL1        0.0619
     28 H          22.0669    6.4260   37.3318 H       1  UNL1        0.0607
     29 H          23.8019    6.7382   37.1769 H       1  UNL1        0.0607
     30 H          21.7017    8.4030   36.1614 H       1  UNL1        0.2098
@<TRIPOS>BOND
     1     1     2    2
     2     2     3    1
     3     2     4    1
     4     3     5   ar
     5     3     6   ar
     6     4     7   ar
     7     4     8   ar
     8     5     9    1
     9     5    10   ar
    10     6    11    1
    11     6    12   ar
    12     7    13    1
    13     7    14   ar
    14     8    15   ar
    15    10    16   ar
    16    11    17    2
    17    14    18   ar
    18    16    19    1
    19    19    20    1
    20     8    11    1
    21    12    16   ar
    22    15    18   ar
    23     9    21    1
    24    10    22    1
    25    12    23    1
    26    13    24    1
    27    14    25    1
    28    15    26    1
    29    18    27    1
    30    19    28    1
    31    19    29    1
    32    20    30    1
@<TRIPOS>SUBSTRUCTURE
     1 UNL1        1 TEMP              0 ****  ****    0 ROOT


##########                                Name:                  84
##########                DOCK_Rotatable_Bonds:                   4
##########                         Heavy_Atoms:                  20
##########                    Molecular_Weight:             270.241
##########                       Formal_Charge:        -2.98023e-08
##########                     HBond_Acceptors:                   5
##########                        HBond_Donors:                   3
##########                    Descriptor_Score:           40.748077
##########          Footprint_Similarity_Score:           12.821726
##########                 desc_FPS_vdw_energy:          -28.806284
##########                  desc_FPS_es_energy:           -2.529323
##########              desc_FPS_vdw+es_energy:          -31.335608
##########                  desc_FPS_num_hbond:                   2
##########                    desc_FPS_vdw_fps:           10.433161
##########                     desc_FPS_es_fps:            2.388565
##########                     desc_FPS_hb_fps:            1.414214
##########              desc_FPS_vdw_fp_numres:                 219
##########               desc_FPS_es_fp_numres:                 219
##########               desc_FPS_hb_fp_numres:                 219
##########                 Pharmacophore_Score:           20.000000
##########              desc_FMS_num_match_tot:                   0
##########              desc_FMS_max_match_ref:                  10
##########              desc_FMS_max_match_mol:                  11
##########                 desc_FMS_match_rate:            4.000000
##########                desc_FMS_match_resid:            0.000000
##########    desc_FMS_num_hydrophobic_matched:                   0
##########          desc_FMS_num_donor_matched:                   0
##########       desc_FMS_num_acceptor_matched:                   0
##########       desc_FMS_num_aromatic_matched:                   0
##########       desc_FMS_num_positive_matched:                   0
##########       desc_FMS_num_negative_matched:                   0
##########           desc_FMS_num_ring_matched:                   0
########## Hungarian_Matching_Similarity_Score:            7.926355
##########       desc_HMS_num_unmtchd_hvy_atms:                   9
##########           desc_HMS_num_ref_hvy_atms:                  23
##########        desc_HMS_rmsd_mtchd_hvy_atms:           10.969833
##########               Property_Volume_Score:            0.000000
##########               desc_VOS_geometric_vo:            0.000000
##########                desc_VOS_hvy_atom_vo:            0.000000
##########            desc_VOS_pos_chrg_atm_vo:            0.000000
##########            desc_VOS_neg_chrg_atm_vo:            0.000000
##########         desc_VOS_hydrophobic_atm_vo:            0.000000
##########         desc_VOS_hydrophilic_atm_vo:            0.000000
##########           Internal_energy_repulsive:           12.369311

@<TRIPOS>MOLECULE
84
 30 32 1 0 0
SMALL
GASTEIGER


@<TRIPOS>ATOM
      1 O          22.4041   10.1305   43.0702 O.2     1  UNL1       -0.2864
      2 C          22.7615   10.5614   41.9889 C.2     1  UNL1        0.2015
      3 C          22.7638    9.6696   40.7746 C.ar    1  UNL1        0.0745
      4 C          23.2064   11.9936   41.8466 C.ar    1  UNL1        0.0745
      5 C          22.3451    8.3278   40.8580 C.ar    1  UNL1        0.1287
      6 C          23.1893   10.1701   39.5374 C.ar    1  UNL1        0.0369
      7 C          23.2225   12.8625   42.9555 C.ar    1  UNL1        0.1283
      8 C          23.6104   12.4814   40.5965 C.ar    1  UNL1        0.0366
      9 O          21.9084    7.7817   42.0322 O.3     1  UNL1       -0.5060
     10 C          22.3633    7.5090   39.7308 C.ar    1  UNL1       -0.0141
     11 C          23.6278   11.5947   39.3894 C.2     1  UNL1        0.1947
     12 C          23.2081    9.3333   38.4160 C.ar    1  UNL1       -0.0446
     13 O          22.8581   12.4446   44.2043 O.3     1  UNL1       -0.5060
     14 C          23.6203   14.1893   42.8084 C.ar    1  UNL1       -0.0194
     15 C          24.0086   13.8169   40.4650 C.ar    1  UNL1       -0.0500
     16 C          22.7986    8.0051   38.5053 C.ar    1  UNL1       -0.0180
     17 O          23.9902   12.0237   38.3107 O.2     1  UNL1       -0.2866
     18 C          24.0104   14.6681   41.5641 C.ar    1  UNL1       -0.0576
     19 C          22.8400    7.1083   37.2793 C.3     1  UNL1        0.0694
     20 O          22.5910    7.8696   36.0973 O.3     1  UNL1       -0.3904
     21 H          21.5966    6.8573   41.8467 H       1  UNL1        0.2922
     22 H          22.0381    6.4741   39.8133 H       1  UNL1        0.0658
     23 H          23.5446    9.7155   37.4543 H       1  UNL1        0.0628
     24 H          22.6590   11.4741   44.1576 H       1  UNL1        0.2922
     25 H          23.6268   14.8549   43.6687 H       1  UNL1        0.0654
     26 H          24.3205   14.2073   39.4987 H       1  UNL1        0.0625
     27 H          24.3189   15.7047   41.4510 H       1  UNL1        0.0619
     28 H          22.0915    6.3144   37.3539 H       1  UNL1        0.0607
     29 H          23.8240    6.6384   37.1954 H       1  UNL1        0.0607
     30 H          23.2818    8.5513   36.0136 H       1  UNL1        0.2098
@<TRIPOS>BOND
     1     1     2    2
     2     2     3    1
     3     2     4    1
     4     3     5   ar
     5     3     6   ar
     6     4     7   ar
     7     4     8   ar
     8     5     9    1
     9     5    10   ar
    10     6    11    1
    11     6    12   ar
    12     7    13    1
    13     7    14   ar
    14     8    15   ar
    15    10    16   ar
    16    11    17    2
    17    14    18   ar
    18    16    19    1
    19    19    20    1
    20     8    11    1
    21    12    16   ar
    22    15    18   ar
    23     9    21    1
    24    10    22    1
    25    12    23    1
    26    13    24    1
    27    14    25    1
    28    15    26    1
    29    18    27    1
    30    19    28    1
    31    19    29    1
    32    20    30    1
@<TRIPOS>SUBSTRUCTURE
     1 UNL1        1 TEMP              0 ****  ****    0 ROOT


##########                                Name:                  86
##########                DOCK_Rotatable_Bonds:                  12
##########                         Heavy_Atoms:                  22
##########                    Molecular_Weight:             305.417
##########                       Formal_Charge:         1.30385e-07
##########                     HBond_Acceptors:                   4
##########                        HBond_Donors:                   2
##########                    Descriptor_Score:           37.278774
##########          Footprint_Similarity_Score:           10.023463
##########                 desc_FPS_vdw_energy:          -37.629280
##########                  desc_FPS_es_energy:           -0.825963
##########              desc_FPS_vdw+es_energy:          -38.455242
##########                  desc_FPS_num_hbond:                   0
##########                    desc_FPS_vdw_fps:            8.018701
##########                     desc_FPS_es_fps:            2.004762
##########                     desc_FPS_hb_fps:            0.000000
##########              desc_FPS_vdw_fp_numres:                 219
##########               desc_FPS_es_fp_numres:                 219
##########               desc_FPS_hb_fp_numres:                 219
##########                 Pharmacophore_Score:           20.000000
##########              desc_FMS_num_match_tot:                   0
##########              desc_FMS_max_match_ref:                  10
##########              desc_FMS_max_match_mol:                  15
##########                 desc_FMS_match_rate:            4.000000
##########                desc_FMS_match_resid:            0.000000
##########    desc_FMS_num_hydrophobic_matched:                   0
##########          desc_FMS_num_donor_matched:                   0
##########       desc_FMS_num_acceptor_matched:                   0
##########       desc_FMS_num_aromatic_matched:                   0
##########       desc_FMS_num_positive_matched:                   0
##########       desc_FMS_num_negative_matched:                   0
##########           desc_FMS_num_ring_matched:                   0
########## Hungarian_Matching_Similarity_Score:            7.440374
##########       desc_HMS_num_unmtchd_hvy_atms:                  21
##########           desc_HMS_num_ref_hvy_atms:                  23
##########        desc_HMS_rmsd_mtchd_hvy_atms:            7.875157
##########               Property_Volume_Score:            0.185061
##########               desc_VOS_geometric_vo:            0.299530
##########                desc_VOS_hvy_atom_vo:            0.225645
##########            desc_VOS_pos_chrg_atm_vo:            0.120933
##########            desc_VOS_neg_chrg_atm_vo:            0.230270
##########         desc_VOS_hydrophobic_atm_vo:            0.233988
##########         desc_VOS_hydrophilic_atm_vo:            0.000000
##########           Internal_energy_repulsive:            8.121311

@<TRIPOS>MOLECULE
86
 49 49 1 0 0
SMALL
GASTEIGER


@<TRIPOS>ATOM
      1 O          21.4264   14.3662   45.2824 O.2     1  UNL1       -0.2758
      2 C          21.2670   14.6245   44.1059 C.2     1  UNL1        0.2133
      3 N          21.8631   13.9186   43.1191 N.am    1  UNL1       -0.3112
      4 C          20.3444   15.7339   43.6395 C.3     1  UNL1        0.0240
      5 C          22.7920   12.8037   43.3338 C.3     1  UNL1        0.0369
      6 C          19.1090   15.9131   44.5556 C.3     1  UNL1       -0.0445
      7 C          23.0460   12.0276   42.0556 C.ar    1  UNL1       -0.0266
      8 C          18.1223   14.7201   44.5336 C.3     1  UNL1       -0.0492
      9 C          22.7285   10.6688   41.9872 C.ar    1  UNL1       -0.0116
     10 C          23.6088   12.6655   40.9484 C.ar    1  UNL1       -0.0534
     11 C          16.7350   15.0749   45.1092 C.3     1  UNL1       -0.0347
     12 C          22.9819    9.9460   40.8160 C.ar    1  UNL1        0.1616
     13 C          23.8606   11.9492   39.7803 C.ar    1  UNL1       -0.0162
     14 C          15.7408   13.9635   44.8575 C.2     1  UNL1       -0.0877
     15 O          22.6999    8.5932   40.6872 O.3     1  UNL1       -0.4914
     16 C          23.5497   10.5936   39.7184 C.ar    1  UNL1        0.1585
     17 C          15.1444   13.7712   43.6878 C.2     1  UNL1       -0.0854
     18 C          21.8074    7.8824   41.5763 C.3     1  UNL1        0.0790
     19 O          23.7981    9.8767   38.5899 O.3     1  UNL1       -0.5033
     20 C          14.1473   12.6641   43.4193 C.3     1  UNL1       -0.0286
     21 C          14.3825   11.4853   44.3847 C.3     1  UNL1       -0.0592
     22 C          12.7079   13.1990   43.5564 C.3     1  UNL1       -0.0592
     23 H          21.6712   14.1748   42.1628 H       1  UNL1        0.1490
     24 H          20.0028   15.5090   42.6265 H       1  UNL1        0.0358
     25 H          20.9055   16.6693   43.5740 H       1  UNL1        0.0358
     26 H          22.3968   12.1350   44.1037 H       1  UNL1        0.0512
     27 H          23.7303   13.2176   43.7133 H       1  UNL1        0.0512
     28 H          18.5713   16.8147   44.2518 H       1  UNL1        0.0270
     29 H          19.4489   16.0812   45.5803 H       1  UNL1        0.0270
     30 H          18.5449   13.8758   45.0841 H       1  UNL1        0.0268
     31 H          18.0007   14.3916   43.4984 H       1  UNL1        0.0268
     32 H          22.2876   10.1862   42.8551 H       1  UNL1        0.0658
     33 H          23.8572   13.7228   40.9936 H       1  UNL1        0.0622
     34 H          16.3720   15.9983   44.6515 H       1  UNL1        0.0307
     35 H          16.8133   15.2552   46.1831 H       1  UNL1        0.0307
     36 H          24.3034   12.4468   38.9207 H       1  UNL1        0.0655
     37 H          15.5323   13.3054   45.6984 H       1  UNL1        0.0569
     38 H          15.3635   14.4294   42.8490 H       1  UNL1        0.0572
     39 H          21.7563    6.8366   41.2617 H       1  UNL1        0.0660
     40 H          20.8094    8.3268   41.5254 H       1  UNL1        0.0660
     41 H          22.1918    7.9357   42.5987 H       1  UNL1        0.0660
     42 H          23.2249    9.0840   38.6472 H       1  UNL1        0.2923
     43 H          14.2753   12.2964   42.3977 H       1  UNL1        0.0338
     44 H          14.2547   11.8016   45.4230 H       1  UNL1        0.0235
     45 H          15.3956   11.0934   44.2672 H       1  UNL1        0.0235
     46 H          13.6785   10.6751   44.1817 H       1  UNL1        0.0235
     47 H          12.5240   13.5672   44.5687 H       1  UNL1        0.0235
     48 H          11.9817   12.4125   43.3377 H       1  UNL1        0.0235
     49 H          12.5393   14.0213   42.8567 H       1  UNL1        0.0235
@<TRIPOS>BOND
     1     1     2    2
     2     2     3   am
     3     2     4    1
     4     3     5    1
     5     4     6    1
     6     5     7    1
     7     6     8    1
     8     7     9   ar
     9     7    10   ar
    10     8    11    1
    11     9    12   ar
    12    10    13   ar
    13    11    14    1
    14    12    15    1
    15    12    16   ar
    16    14    17    2
    17    15    18    1
    18    16    19    1
    19    17    20    1
    20    20    21    1
    21    20    22    1
    22    13    16   ar
    23     3    23    1
    24     4    24    1
    25     4    25    1
    26     5    26    1
    27     5    27    1
    28     6    28    1
    29     6    29    1
    30     8    30    1
    31     8    31    1
    32     9    32    1
    33    10    33    1
    34    11    34    1
    35    11    35    1
    36    13    36    1
    37    14    37    1
    38    17    38    1
    39    18    39    1
    40    18    40    1
    41    18    41    1
    42    19    42    1
    43    20    43    1
    44    21    44    1
    45    21    45    1
    46    21    46    1
    47    22    47    1
    48    22    48    1
    49    22    49    1
@<TRIPOS>SUBSTRUCTURE
     1 UNL1        1 TEMP              0 ****  ****    0 ROOT


##########                                Name:                  86
##########                DOCK_Rotatable_Bonds:                  12
##########                         Heavy_Atoms:                  22
##########                    Molecular_Weight:             305.417
##########                       Formal_Charge:         1.30385e-07
##########                     HBond_Acceptors:                   4
##########                        HBond_Donors:                   2
##########                    Descriptor_Score:           22.002558
##########          Footprint_Similarity_Score:            9.924008
##########                 desc_FPS_vdw_energy:          -35.742577
##########                  desc_FPS_es_energy:           -0.908884
##########              desc_FPS_vdw+es_energy:          -36.651459
##########                  desc_FPS_num_hbond:                   0
##########                    desc_FPS_vdw_fps:            7.911557
##########                     desc_FPS_es_fps:            2.012452
##########                     desc_FPS_hb_fps:            0.000000
##########              desc_FPS_vdw_fp_numres:                 219
##########               desc_FPS_es_fp_numres:                 219
##########               desc_FPS_hb_fp_numres:                 219
##########                 Pharmacophore_Score:            4.744570
##########              desc_FMS_num_match_tot:                   1
##########              desc_FMS_max_match_ref:                  10
##########              desc_FMS_max_match_mol:                  15
##########                 desc_FMS_match_rate:            0.900000
##########                desc_FMS_match_resid:            0.244570
##########    desc_FMS_num_hydrophobic_matched:                   1
##########          desc_FMS_num_donor_matched:                   0
##########       desc_FMS_num_acceptor_matched:                   0
##########       desc_FMS_num_aromatic_matched:                   0
##########       desc_FMS_num_positive_matched:                   0
##########       desc_FMS_num_negative_matched:                   0
##########           desc_FMS_num_ring_matched:                   0
########## Hungarian_Matching_Similarity_Score:            7.520115
##########       desc_HMS_num_unmtchd_hvy_atms:                  21
##########           desc_HMS_num_ref_hvy_atms:                  23
##########        desc_HMS_rmsd_mtchd_hvy_atms:            7.954898
##########               Property_Volume_Score:            0.186137
##########               desc_VOS_geometric_vo:            0.301817
##########                desc_VOS_hvy_atom_vo:            0.222391
##########            desc_VOS_pos_chrg_atm_vo:            0.135384
##########            desc_VOS_neg_chrg_atm_vo:            0.225786
##########         desc_VOS_hydrophobic_atm_vo:            0.231445
##########         desc_VOS_hydrophilic_atm_vo:            0.000000
##########           Internal_energy_repulsive:            6.999250

@<TRIPOS>MOLECULE
86
 49 49 1 0 0
SMALL
GASTEIGER


@<TRIPOS>ATOM
      1 O          21.4695   14.2485   45.0880 O.2     1  UNL1       -0.2758
      2 C          21.2677   14.4946   43.9154 C.2     1  UNL1        0.2133
      3 N          21.8303   13.7801   42.9151 N.am    1  UNL1       -0.3112
      4 C          20.3264   15.5973   43.4709 C.3     1  UNL1        0.0240
      5 C          22.7691   12.6695   43.1079 C.3     1  UNL1        0.0369
      6 C          19.1631   15.8315   44.4657 C.3     1  UNL1       -0.0445
      7 C          23.0557   11.9418   41.8083 C.ar    1  UNL1       -0.0266
      8 C          18.0659   14.7397   44.4299 C.3     1  UNL1       -0.0492
      9 C          22.8070   10.5710   41.7042 C.ar    1  UNL1       -0.0116
     10 C          23.5802   12.6369   40.7168 C.ar    1  UNL1       -0.0534
     11 C          16.7698   15.1641   45.1526 C.3     1  UNL1       -0.0347
     12 C          23.0909    9.8936   40.5130 C.ar    1  UNL1        0.1616
     13 C          23.8621   11.9659   39.5289 C.ar    1  UNL1       -0.0162
     14 C          15.7014   14.1019   45.0226 C.2     1  UNL1       -0.0877
     15 O          22.8770    8.5323   40.3486 O.3     1  UNL1       -0.4914
     16 C          23.6198   10.5985   39.4314 C.ar    1  UNL1        0.1585
     17 C          14.9241   13.9778   43.9543 C.2     1  UNL1       -0.0854
     18 C          21.9841    7.7641   41.1882 C.3     1  UNL1        0.0790
     19 O          23.8987    9.9256   38.2830 O.3     1  UNL1       -0.5033
     20 C          13.8504   12.9205   43.8084 C.3     1  UNL1       -0.0286
     21 C          13.4513   12.7628   42.3274 C.3     1  UNL1       -0.0592
     22 C          14.3434   11.5778   44.3835 C.3     1  UNL1       -0.0592
     23 H          21.6040   14.0263   41.9638 H       1  UNL1        0.1490
     24 H          19.9094   15.3361   42.4956 H       1  UNL1        0.0358
     25 H          20.8919   16.5209   43.3260 H       1  UNL1        0.0358
     26 H          22.3684   11.9695   43.8465 H       1  UNL1        0.0512
     27 H          23.6951   13.0809   43.5188 H       1  UNL1        0.0512
     28 H          18.7002   16.7970   44.2473 H       1  UNL1        0.0270
     29 H          19.5702   15.9008   45.4773 H       1  UNL1        0.0270
     30 H          18.4461   13.8136   44.8684 H       1  UNL1        0.0268
     31 H          17.8311   14.5202   43.3854 H       1  UNL1        0.0268
     32 H          22.3953   10.0435   42.5603 H       1  UNL1        0.0658
     33 H          23.7750   13.7039   40.7897 H       1  UNL1        0.0622
     34 H          16.4032   16.1025   44.7295 H       1  UNL1        0.0307
     35 H          16.9757   15.3443   46.2094 H       1  UNL1        0.0307
     36 H          24.2749   12.5082   38.6814 H       1  UNL1        0.0655
     37 H          15.5965   13.4200   45.8639 H       1  UNL1        0.0569
     38 H          15.0398   14.6591   43.1134 H       1  UNL1        0.0572
     39 H          21.9937    6.7235   40.8530 H       1  UNL1        0.0660
     40 H          20.9694    8.1636   41.1052 H       1  UNL1        0.0660
     41 H          22.3250    7.8145   42.2261 H       1  UNL1        0.0660
     42 H          23.4566    9.0554   38.3709 H       1  UNL1        0.2923
     43 H          12.9614   13.2221   44.3687 H       1  UNL1        0.0338
     44 H          14.3081   12.4503   41.7251 H       1  UNL1        0.0235
     45 H          13.0796   13.7104   41.9305 H       1  UNL1        0.0235
     46 H          12.6622   12.0154   42.2189 H       1  UNL1        0.0235
     47 H          15.2265   11.2244   43.8455 H       1  UNL1        0.0235
     48 H          13.5641   10.8158   44.3064 H       1  UNL1        0.0235
     49 H          14.6065   11.6894   45.4383 H       1  UNL1        0.0235
@<TRIPOS>BOND
     1     1     2    2
     2     2     3   am
     3     2     4    1
     4     3     5    1
     5     4     6    1
     6     5     7    1
     7     6     8    1
     8     7     9   ar
     9     7    10   ar
    10     8    11    1
    11     9    12   ar
    12    10    13   ar
    13    11    14    1
    14    12    15    1
    15    12    16   ar
    16    14    17    2
    17    15    18    1
    18    16    19    1
    19    17    20    1
    20    20    21    1
    21    20    22    1
    22    13    16   ar
    23     3    23    1
    24     4    24    1
    25     4    25    1
    26     5    26    1
    27     5    27    1
    28     6    28    1
    29     6    29    1
    30     8    30    1
    31     8    31    1
    32     9    32    1
    33    10    33    1
    34    11    34    1
    35    11    35    1
    36    13    36    1
    37    14    37    1
    38    17    38    1
    39    18    39    1
    40    18    40    1
    41    18    41    1
    42    19    42    1
    43    20    43    1
    44    21    44    1
    45    21    45    1
    46    21    46    1
    47    22    47    1
    48    22    48    1
    49    22    49    1
@<TRIPOS>SUBSTRUCTURE
     1 UNL1        1 TEMP              0 ****  ****    0 ROOT


##########                                Name:                  86
##########                DOCK_Rotatable_Bonds:                  12
##########                         Heavy_Atoms:                  22
##########                    Molecular_Weight:             305.417
##########                       Formal_Charge:         1.30385e-07
##########                     HBond_Acceptors:                   4
##########                        HBond_Donors:                   2
##########                    Descriptor_Score:           24.040901
##########          Footprint_Similarity_Score:           11.813293
##########                 desc_FPS_vdw_energy:          -33.913483
##########                  desc_FPS_es_energy:           -0.656645
##########              desc_FPS_vdw+es_energy:          -34.570129
##########                  desc_FPS_num_hbond:                   0
##########                    desc_FPS_vdw_fps:            9.834294
##########                     desc_FPS_es_fps:            1.978999
##########                     desc_FPS_hb_fps:            0.000000
##########              desc_FPS_vdw_fp_numres:                 219
##########               desc_FPS_es_fp_numres:                 219
##########               desc_FPS_hb_fp_numres:                 219
##########                 Pharmacophore_Score:            4.947725
##########              desc_FMS_num_match_tot:                   1
##########              desc_FMS_max_match_ref:                  10
##########              desc_FMS_max_match_mol:                  15
##########                 desc_FMS_match_rate:            0.900000
##########                desc_FMS_match_resid:            0.447725
##########    desc_FMS_num_hydrophobic_matched:                   1
##########          desc_FMS_num_donor_matched:                   0
##########       desc_FMS_num_acceptor_matched:                   0
##########       desc_FMS_num_aromatic_matched:                   0
##########       desc_FMS_num_positive_matched:                   0
##########       desc_FMS_num_negative_matched:                   0
##########           desc_FMS_num_ring_matched:                   0
########## Hungarian_Matching_Similarity_Score:            7.460996
##########       desc_HMS_num_unmtchd_hvy_atms:                  21
##########           desc_HMS_num_ref_hvy_atms:                  23
##########        desc_HMS_rmsd_mtchd_hvy_atms:            7.895779
##########               Property_Volume_Score:            0.181115
##########               desc_VOS_geometric_vo:            0.290769
##########                desc_VOS_hvy_atom_vo:            0.217468
##########            desc_VOS_pos_chrg_atm_vo:            0.131008
##########            desc_VOS_neg_chrg_atm_vo:            0.219838
##########         desc_VOS_hydrophobic_atm_vo:            0.227606
##########         desc_VOS_hydrophilic_atm_vo:            0.000000
##########           Internal_energy_repulsive:            7.961983

@<TRIPOS>MOLECULE
86
 49 49 1 0 0
SMALL
GASTEIGER


@<TRIPOS>ATOM
      1 O          21.5369   14.4128   45.3512 O.2     1  UNL1       -0.2758
      2 C          21.3773   14.7059   44.1828 C.2     1  UNL1        0.2133
      3 N          21.9656   14.0235   43.1750 N.am    1  UNL1       -0.3112
      4 C          20.4632   15.8358   43.7503 C.3     1  UNL1        0.0240
      5 C          22.8856   12.8953   43.3558 C.3     1  UNL1        0.0369
      6 C          19.1950   15.9534   44.6310 C.3     1  UNL1       -0.0445
      7 C          23.0925   12.1245   42.0659 C.ar    1  UNL1       -0.0266
      8 C          18.2432   14.7355   44.5415 C.3     1  UNL1       -0.0492
      9 C          22.7847   10.7631   42.0071 C.ar    1  UNL1       -0.0116
     10 C          23.6024   12.7703   40.9377 C.ar    1  UNL1       -0.0534
     11 C          16.8387   15.0252   45.1119 C.3     1  UNL1       -0.0347
     12 C          22.9952   10.0454   40.8243 C.ar    1  UNL1        0.1616
     13 C          23.8111   12.0590   39.7581 C.ar    1  UNL1       -0.0162
     14 C          15.9028   13.8621   44.8709 C.2     1  UNL1       -0.0877
     15 O          22.7203    8.6904   40.7038 O.3     1  UNL1       -0.4914
     16 C          23.5103   10.7008   39.7056 C.ar    1  UNL1        0.1585
     17 C          15.2641   13.6670   43.7242 C.2     1  UNL1       -0.0854
     18 C          21.8033    7.9881   41.5745 C.3     1  UNL1        0.0790
     19 O          23.7174    9.9889   38.5656 O.3     1  UNL1       -0.5033
     20 C          14.3242   12.5085   43.4666 C.3     1  UNL1       -0.0286
     21 C          13.6444   12.0680   44.7785 C.3     1  UNL1       -0.0592
     22 C          13.2687   12.9028   42.4142 C.3     1  UNL1       -0.0592
     23 H          21.7740   14.3086   42.2269 H       1  UNL1        0.1490
     24 H          20.1591   15.6695   42.7143 H       1  UNL1        0.0358
     25 H          21.0190   16.7765   43.7602 H       1  UNL1        0.0358
     26 H          22.5038   12.2266   44.1324 H       1  UNL1        0.0512
     27 H          23.8397   13.2945   43.7107 H       1  UNL1        0.0512
     28 H          18.6422   16.8491   44.3370 H       1  UNL1        0.0270
     29 H          19.4977   16.0990   45.6707 H       1  UNL1        0.0270
     30 H          18.6823   13.8794   45.0601 H       1  UNL1        0.0268
     31 H          18.1449   14.4505   43.4911 H       1  UNL1        0.0268
     32 H          22.3853   10.2744   42.8915 H       1  UNL1        0.0658
     33 H          23.8428   13.8297   40.9753 H       1  UNL1        0.0622
     34 H          16.4300   15.9241   44.6441 H       1  UNL1        0.0307
     35 H          16.9061   15.2205   46.1839 H       1  UNL1        0.0307
     36 H          24.2127   12.5628   38.8819 H       1  UNL1        0.0655
     37 H          15.7747   13.1684   45.6991 H       1  UNL1        0.0569
     38 H          15.4028   14.3614   42.8975 H       1  UNL1        0.0572
     39 H          21.7640    6.9383   41.2714 H       1  UNL1        0.0660
     40 H          20.8063    8.4291   41.4884 H       1  UNL1        0.0660
     41 H          22.1568    8.0549   42.6073 H       1  UNL1        0.0660
     42 H          23.1838    9.1726   38.6616 H       1  UNL1        0.2923
     43 H          14.8898   11.6584   43.0759 H       1  UNL1        0.0338
     44 H          13.0553   12.8843   45.2042 H       1  UNL1        0.0235
     45 H          14.3947   11.7662   45.5131 H       1  UNL1        0.0235
     46 H          12.9803   11.2189   44.6017 H       1  UNL1        0.0235
     47 H          12.6646   13.7433   42.7646 H       1  UNL1        0.0235
     48 H          12.6025   12.0630   42.2027 H       1  UNL1        0.0235
     49 H          13.7540   13.1954   41.4798 H       1  UNL1        0.0235
@<TRIPOS>BOND
     1     1     2    2
     2     2     3   am
     3     2     4    1
     4     3     5    1
     5     4     6    1
     6     5     7    1
     7     6     8    1
     8     7     9   ar
     9     7    10   ar
    10     8    11    1
    11     9    12   ar
    12    10    13   ar
    13    11    14    1
    14    12    15    1
    15    12    16   ar
    16    14    17    2
    17    15    18    1
    18    16    19    1
    19    17    20    1
    20    20    21    1
    21    20    22    1
    22    13    16   ar
    23     3    23    1
    24     4    24    1
    25     4    25    1
    26     5    26    1
    27     5    27    1
    28     6    28    1
    29     6    29    1
    30     8    30    1
    31     8    31    1
    32     9    32    1
    33    10    33    1
    34    11    34    1
    35    11    35    1
    36    13    36    1
    37    14    37    1
    38    17    38    1
    39    18    39    1
    40    18    40    1
    41    18    41    1
    42    19    42    1
    43    20    43    1
    44    21    44    1
    45    21    45    1
    46    21    46    1
    47    22    47    1
    48    22    48    1
    49    22    49    1
@<TRIPOS>SUBSTRUCTURE
     1 UNL1        1 TEMP              0 ****  ****    0 ROOT


##########                                Name:                  88
##########                DOCK_Rotatable_Bonds:                   1
##########                         Heavy_Atoms:                  11
##########                    Molecular_Weight:             152.236
##########                       Formal_Charge:         0.000200033
##########                     HBond_Acceptors:                   1
##########                        HBond_Donors:                   0
##########                    Descriptor_Score:           29.202656
##########          Footprint_Similarity_Score:            5.299497
##########                 desc_FPS_vdw_energy:          -22.872711
##########                  desc_FPS_es_energy:            0.084471
##########              desc_FPS_vdw+es_energy:          -22.788240
##########                  desc_FPS_num_hbond:                   0
##########                    desc_FPS_vdw_fps:            3.386927
##########                     desc_FPS_es_fps:            1.912570
##########                     desc_FPS_hb_fps:            0.000000
##########              desc_FPS_vdw_fp_numres:                 219
##########               desc_FPS_es_fp_numres:                 219
##########               desc_FPS_hb_fp_numres:                 219
##########                 Pharmacophore_Score:           20.000000
##########              desc_FMS_num_match_tot:                   0
##########              desc_FMS_max_match_ref:                  10
##########              desc_FMS_max_match_mol:                   7
##########                 desc_FMS_match_rate:            4.000000
##########                desc_FMS_match_resid:            0.000000
##########    desc_FMS_num_hydrophobic_matched:                   0
##########          desc_FMS_num_donor_matched:                   0
##########       desc_FMS_num_acceptor_matched:                   0
##########       desc_FMS_num_aromatic_matched:                   0
##########       desc_FMS_num_positive_matched:                   0
##########       desc_FMS_num_negative_matched:                   0
##########           desc_FMS_num_ring_matched:                   0
########## Hungarian_Matching_Similarity_Score:            4.144570
##########       desc_HMS_num_unmtchd_hvy_atms:                  28
##########           desc_HMS_num_ref_hvy_atms:                  23
##########        desc_HMS_rmsd_mtchd_hvy_atms:            3.057614
##########               Property_Volume_Score:            0.241412
##########               desc_VOS_geometric_vo:            0.422671
##########                desc_VOS_hvy_atom_vo:            0.320523
##########            desc_VOS_pos_chrg_atm_vo:            0.277950
##########            desc_VOS_neg_chrg_atm_vo:            0.203970
##########         desc_VOS_hydrophobic_atm_vo:            0.223361
##########         desc_VOS_hydrophilic_atm_vo:            0.000000
##########           Internal_energy_repulsive:           15.592322

@<TRIPOS>MOLECULE
88
 27 28 1 0 0
SMALL
GASTEIGER


@<TRIPOS>ATOM
      1 O           9.3667   13.6065   44.7774 O.2     1  UNL1       -0.2971
      2 C          10.3992   13.3838   44.1768 C.2     1  UNL1        0.1370
      3 C          10.5337   12.2848   43.1458 C.3     1  UNL1        0.0181
      4 C          11.7484   13.8694   44.6475 C.3     1  UNL1        0.0123
      5 C          12.0413   11.9559   43.0658 C.3     1  UNL1       -0.0250
      6 C           9.9482   12.7417   41.7924 C.3     1  UNL1       -0.0554
      7 C          12.7808   12.9137   44.0162 C.3     1  UNL1       -0.0165
      8 C          12.9955   13.0044   42.5160 C.3     1  UNL1       -0.0425
      9 C          13.9835   12.3811   44.8403 C.3     1  UNL1       -0.0404
     10 C          14.4117   11.0015   44.2963 C.3     1  UNL1       -0.0621
     11 C          15.1765   13.3619   44.8421 C.3     1  UNL1       -0.0621
     12 H           9.9975   11.3978   43.4925 H       1  UNL1        0.0377
     13 H          11.7918   13.8513   45.7375 H       1  UNL1        0.0347
     14 H          11.9191   14.8936   44.3068 H       1  UNL1        0.0347
     15 H          12.3845   10.9198   43.0959 H       1  UNL1        0.0313
     16 H          10.3689   13.7008   41.4827 H       1  UNL1        0.0236
     17 H           8.8658   12.8664   41.8731 H       1  UNL1        0.0236
     18 H          10.1522   12.0055   41.0120 H       1  UNL1        0.0236
     19 H          12.5693   13.8715   42.0244 H       1  UNL1        0.0274
     20 H          13.9391   12.6222   42.1316 H       1  UNL1        0.0274
     21 H          13.6710   12.2464   45.8786 H       1  UNL1        0.0301
     22 H          14.7739   11.0799   43.2685 H       1  UNL1        0.0233
     23 H          13.5677   10.3074   44.3096 H       1  UNL1        0.0233
     24 H          15.2094   10.5762   44.9095 H       1  UNL1        0.0233
     25 H          15.5711   13.5171   43.8361 H       1  UNL1        0.0233
     26 H          15.9855   12.9703   45.4623 H       1  UNL1        0.0233
     27 H          14.8775   14.3302   45.2496 H       1  UNL1        0.0233
@<TRIPOS>BOND
     1     1     2    2
     2     2     3    1
     3     2     4    1
     4     3     5    1
     5     3     6    1
     6     4     7    1
     7     5     8    1
     8     7     9    1
     9     9    10    1
    10     9    11    1
    11     5     7    1
    12     7     8    1
    13     3    12    1
    14     4    13    1
    15     4    14    1
    16     5    15    1
    17     6    16    1
    18     6    17    1
    19     6    18    1
    20     8    19    1
    21     8    20    1
    22     9    21    1
    23    10    22    1
    24    10    23    1
    25    10    24    1
    26    11    25    1
    27    11    26    1
    28    11    27    1
@<TRIPOS>SUBSTRUCTURE
     1 UNL1        1 TEMP              0 ****  ****    0 ROOT


##########                                Name:                  88
##########                DOCK_Rotatable_Bonds:                   1
##########                         Heavy_Atoms:                  11
##########                    Molecular_Weight:             152.236
##########                       Formal_Charge:         0.000200033
##########                     HBond_Acceptors:                   1
##########                        HBond_Donors:                   0
##########                    Descriptor_Score:           11.842009
##########          Footprint_Similarity_Score:            5.089711
##########                 desc_FPS_vdw_energy:          -19.917820
##########                  desc_FPS_es_energy:           -1.435081
##########              desc_FPS_vdw+es_energy:          -21.352901
##########                  desc_FPS_num_hbond:                   0
##########                    desc_FPS_vdw_fps:            4.102882
##########                     desc_FPS_es_fps:            0.986829
##########                     desc_FPS_hb_fps:            0.000000
##########              desc_FPS_vdw_fp_numres:                 219
##########               desc_FPS_es_fp_numres:                 219
##########               desc_FPS_hb_fp_numres:                 219
##########                 Pharmacophore_Score:            4.978731
##########              desc_FMS_num_match_tot:                   2
##########              desc_FMS_max_match_ref:                  10
##########              desc_FMS_max_match_mol:                   7
##########                 desc_FMS_match_rate:            0.800000
##########                desc_FMS_match_resid:            0.978731
##########    desc_FMS_num_hydrophobic_matched:                   1
##########          desc_FMS_num_donor_matched:                   0
##########       desc_FMS_num_acceptor_matched:                   1
##########       desc_FMS_num_aromatic_matched:                   0
##########       desc_FMS_num_positive_matched:                   0
##########       desc_FMS_num_negative_matched:                   0
##########           desc_FMS_num_ring_matched:                   0
########## Hungarian_Matching_Similarity_Score:            2.070657
##########       desc_HMS_num_unmtchd_hvy_atms:                  28
##########           desc_HMS_num_ref_hvy_atms:                  23
##########        desc_HMS_rmsd_mtchd_hvy_atms:            0.983700
##########               Property_Volume_Score:            0.297090
##########               desc_VOS_geometric_vo:            0.419926
##########                desc_VOS_hvy_atom_vo:            0.308047
##########            desc_VOS_pos_chrg_atm_vo:            0.330864
##########            desc_VOS_neg_chrg_atm_vo:            0.221404
##########         desc_VOS_hydrophobic_atm_vo:            0.240069
##########         desc_VOS_hydrophilic_atm_vo:            0.262230
##########           Internal_energy_repulsive:           16.583248

@<TRIPOS>MOLECULE
88
 27 28 1 0 0
SMALL
GASTEIGER


@<TRIPOS>ATOM
      1 O          11.2455   11.2269   40.9900 O.2     1  UNL1       -0.2971
      2 C          11.3500   11.9058   41.9923 C.2     1  UNL1        0.1370
      3 C          11.3343   13.4185   41.9700 C.3     1  UNL1        0.0181
      4 C          11.9047   11.3772   43.2925 C.3     1  UNL1        0.0123
      5 C          12.0500   13.8725   43.2619 C.3     1  UNL1       -0.0250
      6 C           9.8847   13.9405   41.8738 C.3     1  UNL1       -0.0554
      7 C          12.4269   12.6103   44.0570 C.3     1  UNL1       -0.0165
      8 C          11.3985   13.5835   44.6050 C.3     1  UNL1       -0.0425
      9 C          13.7847   12.5676   44.8077 C.3     1  UNL1       -0.0404
     10 C          14.7223   11.5514   44.1217 C.3     1  UNL1       -0.0621
     11 C          14.4539   13.9569   44.8936 C.3     1  UNL1       -0.0621
     12 H          11.9055   13.7722   41.1078 H       1  UNL1        0.0377
     13 H          12.6993   10.6565   43.0933 H       1  UNL1        0.0347
     14 H          11.1161   10.8807   43.8633 H       1  UNL1        0.0347
     15 H          12.8231   14.6428   43.2253 H       1  UNL1        0.0313
     16 H           9.2523   13.4971   42.6459 H       1  UNL1        0.0236
     17 H           9.4540   13.6799   40.9041 H       1  UNL1        0.0236
     18 H           9.8544   15.0268   41.9826 H       1  UNL1        0.0236
     19 H          10.3703   13.2400   44.6076 H       1  UNL1        0.0274
     20 H          11.7169   14.2224   45.4263 H       1  UNL1        0.0274
     21 H          13.6143   12.2244   45.8310 H       1  UNL1        0.0301
     22 H          14.9619   11.8641   43.1026 H       1  UNL1        0.0233
     23 H          14.2498   10.5671   44.0755 H       1  UNL1        0.0233
     24 H          15.6568   11.4524   44.6786 H       1  UNL1        0.0233
     25 H          14.6919   14.3506   43.9036 H       1  UNL1        0.0233
     26 H          15.3849   13.8924   45.4607 H       1  UNL1        0.0233
     27 H          13.7986   14.6686   45.4006 H       1  UNL1        0.0233
@<TRIPOS>BOND
     1     1     2    2
     2     2     3    1
     3     2     4    1
     4     3     5    1
     5     3     6    1
     6     4     7    1
     7     5     8    1
     8     7     9    1
     9     9    10    1
    10     9    11    1
    11     5     7    1
    12     7     8    1
    13     3    12    1
    14     4    13    1
    15     4    14    1
    16     5    15    1
    17     6    16    1
    18     6    17    1
    19     6    18    1
    20     8    19    1
    21     8    20    1
    22     9    21    1
    23    10    22    1
    24    10    23    1
    25    10    24    1
    26    11    25    1
    27    11    26    1
    28    11    27    1
@<TRIPOS>SUBSTRUCTURE
     1 UNL1        1 TEMP              0 ****  ****    0 ROOT


##########                                Name:                  88
##########                DOCK_Rotatable_Bonds:                   1
##########                         Heavy_Atoms:                  11
##########                    Molecular_Weight:             152.236
##########                       Formal_Charge:         0.000200033
##########                     HBond_Acceptors:                   1
##########                        HBond_Donors:                   0
##########                    Descriptor_Score:           11.852195
##########          Footprint_Similarity_Score:            4.653705
##########                 desc_FPS_vdw_energy:          -19.754587
##########                  desc_FPS_es_energy:           -1.305223
##########              desc_FPS_vdw+es_energy:          -21.059811
##########                  desc_FPS_num_hbond:                   0
##########                    desc_FPS_vdw_fps:            3.570860
##########                     desc_FPS_es_fps:            1.082845
##########                     desc_FPS_hb_fps:            0.000000
##########              desc_FPS_vdw_fp_numres:                 219
##########               desc_FPS_es_fp_numres:                 219
##########               desc_FPS_hb_fp_numres:                 219
##########                 Pharmacophore_Score:            5.345233
##########              desc_FMS_num_match_tot:                   1
##########              desc_FMS_max_match_ref:                  10
##########              desc_FMS_max_match_mol:                   7
##########                 desc_FMS_match_rate:            0.900000
##########                desc_FMS_match_resid:            0.845234
##########    desc_FMS_num_hydrophobic_matched:                   0
##########          desc_FMS_num_donor_matched:                   0
##########       desc_FMS_num_acceptor_matched:                   1
##########       desc_FMS_num_aromatic_matched:                   0
##########       desc_FMS_num_positive_matched:                   0
##########       desc_FMS_num_negative_matched:                   0
##########           desc_FMS_num_ring_matched:                   0
########## Hungarian_Matching_Similarity_Score:            2.263523
##########       desc_HMS_num_unmtchd_hvy_atms:                  28
##########           desc_HMS_num_ref_hvy_atms:                  23
##########        desc_HMS_rmsd_mtchd_hvy_atms:            1.176567
##########               Property_Volume_Score:            0.410267
##########               desc_VOS_geometric_vo:            0.537756
##########                desc_VOS_hvy_atom_vo:            0.418647
##########            desc_VOS_pos_chrg_atm_vo:            0.377702
##########            desc_VOS_neg_chrg_atm_vo:            0.324592
##########         desc_VOS_hydrophobic_atm_vo:            0.365510
##########         desc_VOS_hydrophilic_atm_vo:            0.437395
##########           Internal_energy_repulsive:           13.807677

@<TRIPOS>MOLECULE
88
 27 28 1 0 0
SMALL
GASTEIGER


@<TRIPOS>ATOM
      1 O          11.5594   10.3630   42.8164 O.2     1  UNL1       -0.2971
      2 C          11.9728   11.3970   43.3026 C.2     1  UNL1        0.1370
      3 C          11.4363   12.7598   42.9234 C.3     1  UNL1        0.0181
      4 C          13.3022   11.5026   44.0093 C.3     1  UNL1        0.0123
      5 C          12.5497   13.7711   43.2771 C.3     1  UNL1       -0.0250
      6 C          10.1127   13.0430   43.6657 C.3     1  UNL1       -0.0554
      7 C          13.7088   12.9871   43.9166 C.3     1  UNL1       -0.0165
      8 C          12.9128   13.9854   44.7380 C.3     1  UNL1       -0.0425
      9 C          15.1696   13.3951   43.5867 C.3     1  UNL1       -0.0404
     10 C          15.4882   13.0334   42.1204 C.3     1  UNL1       -0.0621
     11 C          15.4362   14.8934   43.8501 C.3     1  UNL1       -0.0621
     12 H          11.2616   12.7910   41.8449 H       1  UNL1        0.0377
     13 H          14.0330   10.8507   43.5284 H       1  UNL1        0.0347
     14 H          13.1973   11.2008   45.0544 H       1  UNL1        0.0347
     15 H          12.8510   14.5367   42.5592 H       1  UNL1        0.0313
     16 H          10.2209   12.8874   44.7413 H       1  UNL1        0.0236
     17 H           9.3302   12.3678   43.3114 H       1  UNL1        0.0236
     18 H           9.7834   14.0703   43.4955 H       1  UNL1        0.0236
     19 H          12.2555   13.5668   45.4917 H       1  UNL1        0.0274
     20 H          13.3990   14.9320   44.9650 H       1  UNL1        0.0274
     21 H          15.8502   12.8261   44.2247 H       1  UNL1        0.0301
     22 H          14.8627   13.6045   41.4303 H       1  UNL1        0.0233
     23 H          15.3109   11.9698   41.9426 H       1  UNL1        0.0233
     24 H          16.5347   13.2452   41.8899 H       1  UNL1        0.0233
     25 H          14.8161   15.5298   43.2160 H       1  UNL1        0.0233
     26 H          16.4816   15.1322   43.6437 H       1  UNL1        0.0233
     27 H          15.2331   15.1423   44.8941 H       1  UNL1        0.0233
@<TRIPOS>BOND
     1     1     2    2
     2     2     3    1
     3     2     4    1
     4     3     5    1
     5     3     6    1
     6     4     7    1
     7     5     8    1
     8     7     9    1
     9     9    10    1
    10     9    11    1
    11     5     7    1
    12     7     8    1
    13     3    12    1
    14     4    13    1
    15     4    14    1
    16     5    15    1
    17     6    16    1
    18     6    17    1
    19     6    18    1
    20     8    19    1
    21     8    20    1
    22     9    21    1
    23    10    22    1
    24    10    23    1
    25    10    24    1
    26    11    25    1
    27    11    26    1
    28    11    27    1
@<TRIPOS>SUBSTRUCTURE
     1 UNL1        1 TEMP              0 ****  ****    0 ROOT


##########                                Name:                  89
##########                DOCK_Rotatable_Bonds:                   1
##########                         Heavy_Atoms:                  11
##########                    Molecular_Weight:             154.252
##########                       Formal_Charge:        -4.09782e-08
##########                     HBond_Acceptors:                   1
##########                        HBond_Donors:                   1
##########                    Descriptor_Score:           27.939106
##########          Footprint_Similarity_Score:            5.247578
##########                 desc_FPS_vdw_energy:          -16.902027
##########                  desc_FPS_es_energy:           -1.025444
##########              desc_FPS_vdw+es_energy:          -17.927471
##########                  desc_FPS_num_hbond:                   0
##########                    desc_FPS_vdw_fps:            3.959316
##########                     desc_FPS_es_fps:            1.288262
##########                     desc_FPS_hb_fps:            0.000000
##########              desc_FPS_vdw_fp_numres:                 219
##########               desc_FPS_es_fp_numres:                 219
##########               desc_FPS_hb_fp_numres:                 219
##########                 Pharmacophore_Score:           20.000000
##########              desc_FMS_num_match_tot:                   0
##########              desc_FMS_max_match_ref:                  10
##########              desc_FMS_max_match_mol:                   7
##########                 desc_FMS_match_rate:            4.000000
##########                desc_FMS_match_resid:            0.000000
##########    desc_FMS_num_hydrophobic_matched:                   0
##########          desc_FMS_num_donor_matched:                   0
##########       desc_FMS_num_acceptor_matched:                   0
##########       desc_FMS_num_aromatic_matched:                   0
##########       desc_FMS_num_positive_matched:                   0
##########       desc_FMS_num_negative_matched:                   0
##########           desc_FMS_num_ring_matched:                   0
########## Hungarian_Matching_Similarity_Score:            3.080612
##########       desc_HMS_num_unmtchd_hvy_atms:                  30
##########           desc_HMS_num_ref_hvy_atms:                  23
##########        desc_HMS_rmsd_mtchd_hvy_atms:            1.558873
##########               Property_Volume_Score:            0.389084
##########               desc_VOS_geometric_vo:            0.514855
##########                desc_VOS_hvy_atom_vo:            0.400340
##########            desc_VOS_pos_chrg_atm_vo:            0.370762
##########            desc_VOS_neg_chrg_atm_vo:            0.365095
##########         desc_VOS_hydrophobic_atm_vo:            0.359899
##########         desc_VOS_hydrophilic_atm_vo:            0.323555
##########           Internal_energy_repulsive:            9.738724

@<TRIPOS>MOLECULE
89
 29 30 1 0 0
SMALL
GASTEIGER


@<TRIPOS>ATOM
      1 O          12.0488   11.5200   42.7203 O.3     1  UNL1       -0.3912
      2 C          13.1016   12.4824   42.5965 C.3     1  UNL1        0.0614
      3 C          12.7883   13.8451   43.2922 C.3     1  UNL1       -0.0007
      4 C          14.3890   12.0199   43.3250 C.3     1  UNL1       -0.0230
      5 C          14.2094   14.4462   43.5076 C.3     1  UNL1       -0.0242
      6 C          12.3170   13.5495   44.7486 C.3     1  UNL1       -0.0445
      7 C          11.7996   14.7239   42.4951 C.3     1  UNL1       -0.0567
      8 C          14.6688   13.1961   44.3001 C.3     1  UNL1       -0.0329
      9 C          14.2656   15.7747   44.3266 C.3     1  UNL1       -0.0590
     10 C          15.0349   14.7147   42.2093 C.3     1  UNL1       -0.0590
     11 C          13.6203   13.0790   45.4386 C.3     1  UNL1       -0.0490
     12 H          11.8288   11.4261   43.6645 H       1  UNL1        0.2098
     13 H          13.3083   12.6358   41.5341 H       1  UNL1        0.0599
     14 H          15.2102   11.8930   42.6159 H       1  UNL1        0.0293
     15 H          14.2546   11.0727   43.8538 H       1  UNL1        0.0293
     16 H          11.5334   12.7908   44.8031 H       1  UNL1        0.0272
     17 H          11.9267   14.4481   45.2316 H       1  UNL1        0.0272
     18 H          12.1791   14.9239   41.4908 H       1  UNL1        0.0236
     19 H          11.6362   15.6797   42.9972 H       1  UNL1        0.0236
     20 H          10.8345   14.2210   42.4004 H       1  UNL1        0.0236
     21 H          15.7003   13.2291   44.6590 H       1  UNL1        0.0307
     22 H          13.8587   16.6013   43.7392 H       1  UNL1        0.0235
     23 H          15.3023   16.0210   44.5686 H       1  UNL1        0.0235
     24 H          13.7169   15.7504   45.2672 H       1  UNL1        0.0235
     25 H          14.6228   15.5684   41.6662 H       1  UNL1        0.0235
     26 H          15.0680   13.8785   41.5122 H       1  UNL1        0.0235
     27 H          16.0689   14.9558   42.4674 H       1  UNL1        0.0235
     28 H          13.5325   12.0560   45.8130 H       1  UNL1        0.0268
     29 H          13.8737   13.7262   46.2815 H       1  UNL1        0.0268
@<TRIPOS>BOND
     1     1     2    1
     2     2     3    1
     3     2     4    1
     4     3     5    1
     5     3     6    1
     6     3     7    1
     7     4     8    1
     8     5     9    1
     9     5    10    1
    10     6    11    1
    11     5     8    1
    12     8    11    1
    13     1    12    1
    14     2    13    1
    15     4    14    1
    16     4    15    1
    17     6    16    1
    18     6    17    1
    19     7    18    1
    20     7    19    1
    21     7    20    1
    22     8    21    1
    23     9    22    1
    24     9    23    1
    25     9    24    1
    26    10    25    1
    27    10    26    1
    28    10    27    1
    29    11    28    1
    30    11    29    1
@<TRIPOS>SUBSTRUCTURE
     1 UNL1        1 TEMP              0 ****  ****    0 ROOT


##########                                Name:                  89
##########                DOCK_Rotatable_Bonds:                   1
##########                         Heavy_Atoms:                  11
##########                    Molecular_Weight:             154.252
##########                       Formal_Charge:        -4.09782e-08
##########                     HBond_Acceptors:                   1
##########                        HBond_Donors:                   1
##########                    Descriptor_Score:           28.761845
##########          Footprint_Similarity_Score:            5.535763
##########                 desc_FPS_vdw_energy:          -16.857637
##########                  desc_FPS_es_energy:           -0.697368
##########              desc_FPS_vdw+es_energy:          -17.555006
##########                  desc_FPS_num_hbond:                   0
##########                    desc_FPS_vdw_fps:            4.079825
##########                     desc_FPS_es_fps:            1.455938
##########                     desc_FPS_hb_fps:            0.000000
##########              desc_FPS_vdw_fp_numres:                 219
##########               desc_FPS_es_fp_numres:                 219
##########               desc_FPS_hb_fp_numres:                 219
##########                 Pharmacophore_Score:           20.000000
##########              desc_FMS_num_match_tot:                   0
##########              desc_FMS_max_match_ref:                  10
##########              desc_FMS_max_match_mol:                   7
##########                 desc_FMS_match_rate:            4.000000
##########                desc_FMS_match_resid:            0.000000
##########    desc_FMS_num_hydrophobic_matched:                   0
##########          desc_FMS_num_donor_matched:                   0
##########       desc_FMS_num_acceptor_matched:                   0
##########       desc_FMS_num_aromatic_matched:                   0
##########       desc_FMS_num_positive_matched:                   0
##########       desc_FMS_num_negative_matched:                   0
##########           desc_FMS_num_ring_matched:                   0
########## Hungarian_Matching_Similarity_Score:            3.579813
##########       desc_HMS_num_unmtchd_hvy_atms:                  30
##########           desc_HMS_num_ref_hvy_atms:                  23
##########        desc_HMS_rmsd_mtchd_hvy_atms:            2.058074
##########               Property_Volume_Score:            0.353732
##########               desc_VOS_geometric_vo:            0.505297
##########                desc_VOS_hvy_atom_vo:            0.404743
##########            desc_VOS_pos_chrg_atm_vo:            0.306319
##########            desc_VOS_neg_chrg_atm_vo:            0.390799
##########         desc_VOS_hydrophobic_atm_vo:            0.377739
##########         desc_VOS_hydrophilic_atm_vo:            0.137494
##########           Internal_energy_repulsive:            9.739680

@<TRIPOS>MOLECULE
89
 29 30 1 0 0
SMALL
GASTEIGER


@<TRIPOS>ATOM
      1 O          12.4025   12.4324   42.6624 O.3     1  UNL1       -0.3912
      2 C          13.4717   13.3789   42.5585 C.3     1  UNL1        0.0614
      3 C          13.7817   14.1218   43.8968 C.3     1  UNL1       -0.0007
      4 C          14.8205   12.6866   42.2368 C.3     1  UNL1       -0.0230
      5 C          15.2459   14.6075   43.6794 C.3     1  UNL1       -0.0242
      6 C          13.9389   13.0524   45.0204 C.3     1  UNL1       -0.0445
      7 C          12.7516   15.2209   44.2374 C.3     1  UNL1       -0.0567
      8 C          15.7329   13.1631   43.3998 C.3     1  UNL1       -0.0329
      9 C          15.9263   15.2807   44.9134 C.3     1  UNL1       -0.0590
     10 C          15.4623   15.5933   42.4874 C.3     1  UNL1       -0.0590
     11 C          15.2832   12.3752   44.6593 C.3     1  UNL1       -0.0490
     12 H          12.5979   11.8292   43.4019 H       1  UNL1        0.2098
     13 H          13.2240   14.0974   41.7727 H       1  UNL1        0.0599
     14 H          15.2065   13.0216   41.2714 H       1  UNL1        0.0293
     15 H          14.7353   11.5973   42.2030 H       1  UNL1        0.0293
     16 H          13.1180   12.3327   45.0492 H       1  UNL1        0.0272
     17 H          13.9928   13.5163   46.0077 H       1  UNL1        0.0272
     18 H          12.6902   15.9588   43.4347 H       1  UNL1        0.0236
     19 H          13.0246   15.7381   45.1594 H       1  UNL1        0.0236
     20 H          11.7600   14.7837   44.3744 H       1  UNL1        0.0236
     21 H          16.7999   13.0681   43.1841 H       1  UNL1        0.0307
     22 H          15.4864   16.2629   45.1016 H       1  UNL1        0.0235
     23 H          16.9914   15.4281   44.7187 H       1  UNL1        0.0235
     24 H          15.8482   14.7126   45.8394 H       1  UNL1        0.0235
     25 H          15.0426   16.5739   42.7237 H       1  UNL1        0.0235
     26 H          15.0153   15.2727   41.5473 H       1  UNL1        0.0235
     27 H          16.5308   15.7275   42.3030 H       1  UNL1        0.0235
     28 H          15.1563   11.3094   44.4539 H       1  UNL1        0.0268
     29 H          16.0054   12.4784   45.4725 H       1  UNL1        0.0268
@<TRIPOS>BOND
     1     1     2    1
     2     2     3    1
     3     2     4    1
     4     3     5    1
     5     3     6    1
     6     3     7    1
     7     4     8    1
     8     5     9    1
     9     5    10    1
    10     6    11    1
    11     5     8    1
    12     8    11    1
    13     1    12    1
    14     2    13    1
    15     4    14    1
    16     4    15    1
    17     6    16    1
    18     6    17    1
    19     7    18    1
    20     7    19    1
    21     7    20    1
    22     8    21    1
    23     9    22    1
    24     9    23    1
    25     9    24    1
    26    10    25    1
    27    10    26    1
    28    10    27    1
    29    11    28    1
    30    11    29    1
@<TRIPOS>SUBSTRUCTURE
     1 UNL1        1 TEMP              0 ****  ****    0 ROOT


##########                                Name:                  89
##########                DOCK_Rotatable_Bonds:                   1
##########                         Heavy_Atoms:                  11
##########                    Molecular_Weight:             154.252
##########                       Formal_Charge:        -4.09782e-08
##########                     HBond_Acceptors:                   1
##########                        HBond_Donors:                   1
##########                    Descriptor_Score:           30.133366
##########          Footprint_Similarity_Score:            6.258996
##########                 desc_FPS_vdw_energy:          -14.944259
##########                  desc_FPS_es_energy:           -0.515900
##########              desc_FPS_vdw+es_energy:          -15.460159
##########                  desc_FPS_num_hbond:                   0
##########                    desc_FPS_vdw_fps:            4.676158
##########                     desc_FPS_es_fps:            1.582837
##########                     desc_FPS_hb_fps:            0.000000
##########              desc_FPS_vdw_fp_numres:                 219
##########               desc_FPS_es_fp_numres:                 219
##########               desc_FPS_hb_fp_numres:                 219
##########                 Pharmacophore_Score:           20.000000
##########              desc_FMS_num_match_tot:                   0
##########              desc_FMS_max_match_ref:                  10
##########              desc_FMS_max_match_mol:                   7
##########                 desc_FMS_match_rate:            4.000000
##########                desc_FMS_match_resid:            0.000000
##########    desc_FMS_num_hydrophobic_matched:                   0
##########          desc_FMS_num_donor_matched:                   0
##########       desc_FMS_num_acceptor_matched:                   0
##########       desc_FMS_num_aromatic_matched:                   0
##########       desc_FMS_num_positive_matched:                   0
##########       desc_FMS_num_negative_matched:                   0
##########           desc_FMS_num_ring_matched:                   0
########## Hungarian_Matching_Similarity_Score:            4.236070
##########       desc_HMS_num_unmtchd_hvy_atms:                  30
##########           desc_HMS_num_ref_hvy_atms:                  23
##########        desc_HMS_rmsd_mtchd_hvy_atms:            2.714330
##########               Property_Volume_Score:            0.361698
##########               desc_VOS_geometric_vo:            0.536368
##########                desc_VOS_hvy_atom_vo:            0.408626
##########            desc_VOS_pos_chrg_atm_vo:            0.402029
##########            desc_VOS_neg_chrg_atm_vo:            0.386732
##########         desc_VOS_hydrophobic_atm_vo:            0.381798
##########         desc_VOS_hydrophilic_atm_vo:            0.054637
##########           Internal_energy_repulsive:            9.738962

@<TRIPOS>MOLECULE
89
 29 30 1 0 0
SMALL
GASTEIGER


@<TRIPOS>ATOM
      1 O          11.2185   13.5517   42.7513 O.3     1  UNL1       -0.3912
      2 C          12.6328   13.7070   42.5914 C.3     1  UNL1        0.0614
      3 C          13.3641   14.1569   43.8960 C.3     1  UNL1       -0.0007
      4 C          13.3240   12.3587   42.2653 C.3     1  UNL1       -0.0230
      5 C          14.8316   13.7063   43.6304 C.3     1  UNL1       -0.0242
      6 C          12.9193   13.2108   45.0527 C.3     1  UNL1       -0.0445
      7 C          13.1680   15.6542   44.2200 C.3     1  UNL1       -0.0567
      8 C          14.3875   12.2409   43.3911 C.3     1  UNL1       -0.0329
      9 C          15.8213   13.8841   44.8252 C.3     1  UNL1       -0.0590
     10 C          15.5307   14.3677   42.4003 C.3     1  UNL1       -0.0590
     11 C          13.6141   11.8769   44.6867 C.3     1  UNL1       -0.0490
     12 H          11.0597   12.8789   43.4375 H       1  UNL1        0.2098
     13 H          12.8143   14.4240   41.7865 H       1  UNL1        0.0599
     14 H          13.7958   12.3943   41.2807 H       1  UNL1        0.0293
     15 H          12.6262   11.5173   42.2714 H       1  UNL1        0.0293
     16 H          11.8356   13.0965   45.1242 H       1  UNL1        0.0272
     17 H          13.2675   13.5748   46.0218 H       1  UNL1        0.0272
     18 H          13.5123   16.2795   43.3935 H       1  UNL1        0.0236
     19 H          13.7234   15.9344   45.1173 H       1  UNL1        0.0236
     20 H          12.1115   15.8708   44.3934 H       1  UNL1        0.0236
     21 H          15.1963   11.5448   43.1560 H       1  UNL1        0.0307
     22 H          16.0344   14.9432   44.9884 H       1  UNL1        0.0235
     23 H          16.7689   13.3875   44.6027 H       1  UNL1        0.0235
     24 H          15.4654   13.4800   45.7720 H       1  UNL1        0.0235
     25 H          15.7612   15.4146   42.6112 H       1  UNL1        0.0235
     26 H          14.9457   14.3481   41.4818 H       1  UNL1        0.0235
     27 H          16.4739   13.8584   42.1884 H       1  UNL1        0.0235
     28 H          12.8892   11.0759   44.5214 H       1  UNL1        0.0268
     29 H          14.2941   11.5581   45.4801 H       1  UNL1        0.0268
@<TRIPOS>BOND
     1     1     2    1
     2     2     3    1
     3     2     4    1
     4     3     5    1
     5     3     6    1
     6     3     7    1
     7     4     8    1
     8     5     9    1
     9     5    10    1
    10     6    11    1
    11     5     8    1
    12     8    11    1
    13     1    12    1
    14     2    13    1
    15     4    14    1
    16     4    15    1
    17     6    16    1
    18     6    17    1
    19     7    18    1
    20     7    19    1
    21     7    20    1
    22     8    21    1
    23     9    22    1
    24     9    23    1
    25     9    24    1
    26    10    25    1
    27    10    26    1
    28    10    27    1
    29    11    28    1
    30    11    29    1
@<TRIPOS>SUBSTRUCTURE
     1 UNL1        1 TEMP              0 ****  ****    0 ROOT


##########                                Name:                  97
##########                DOCK_Rotatable_Bonds:                  12
##########                         Heavy_Atoms:                  33
##########                    Molecular_Weight:             464.382
##########                       Formal_Charge:         0.000100136
##########                     HBond_Acceptors:                  12
##########                        HBond_Donors:                   8
##########                    Descriptor_Score:           29.029743
##########          Footprint_Similarity_Score:            6.571919
##########                 desc_FPS_vdw_energy:          -44.039249
##########                  desc_FPS_es_energy:           -4.977957
##########              desc_FPS_vdw+es_energy:          -49.017208
##########                  desc_FPS_num_hbond:                   5
##########                    desc_FPS_vdw_fps:            4.964247
##########                     desc_FPS_es_fps:            1.607672
##########                     desc_FPS_hb_fps:            2.645751
##########              desc_FPS_vdw_fp_numres:                 219
##########               desc_FPS_es_fp_numres:                 219
##########               desc_FPS_hb_fp_numres:                 219
##########                 Pharmacophore_Score:           20.000000
##########              desc_FMS_num_match_tot:                   0
##########              desc_FMS_max_match_ref:                  10
##########              desc_FMS_max_match_mol:                  24
##########                 desc_FMS_match_rate:            4.000000
##########                desc_FMS_match_resid:            0.000000
##########    desc_FMS_num_hydrophobic_matched:                   0
##########          desc_FMS_num_donor_matched:                   0
##########       desc_FMS_num_acceptor_matched:                   0
##########       desc_FMS_num_aromatic_matched:                   0
##########       desc_FMS_num_positive_matched:                   0
##########       desc_FMS_num_negative_matched:                   0
##########           desc_FMS_num_ring_matched:                   0
########## Hungarian_Matching_Similarity_Score:            2.744763
##########       desc_HMS_num_unmtchd_hvy_atms:                  20
##########           desc_HMS_num_ref_hvy_atms:                  23
##########        desc_HMS_rmsd_mtchd_hvy_atms:            3.396937
##########               Property_Volume_Score:            0.286938
##########               desc_VOS_geometric_vo:            0.525363
##########                desc_VOS_hvy_atom_vo:            0.463992
##########            desc_VOS_pos_chrg_atm_vo:            0.176271
##########            desc_VOS_neg_chrg_atm_vo:            0.223606
##########         desc_VOS_hydrophobic_atm_vo:            0.243119
##########         desc_VOS_hydrophilic_atm_vo:            0.089275
##########           Internal_energy_repulsive:            8.159061

@<TRIPOS>MOLECULE
97
 53 56 1 0 0
SMALL
GASTEIGER


@<TRIPOS>ATOM
      1 O          17.2115   14.0770   45.8999 O.2     1  UNL1       -0.2830
      2 C          16.6979   13.9193   44.8059 C.ar    1  UNL1        0.2379
      3 C          15.2674   13.5506   44.6254 C.ar    1  UNL1        0.2082
      4 C          17.4231   14.0692   43.5315 C.ar    1  UNL1        0.1092
      5 O          14.6528   13.3976   45.8285 O.3     1  UNL1       -0.5007
      6 C          14.8406   13.4118   43.5836 C.ar    1  UNL1        0.1807
      7 C          16.6785   13.8318   42.3966 C.ar    1  UNL1        0.1465
      8 C          18.8137   14.4408   43.3770 C.ar    1  UNL1        0.1348
      9 O          15.3376   13.4847   42.5701 O.2     1  UNL1       -0.4507
     10 C          13.3749   13.2385   43.2519 C.ar    1  UNL1        0.0247
     11 C          17.3016   13.9602   41.0897 C.ar    1  UNL1        0.0231
     12 O          19.5881   14.6819   44.4648 O.3     1  UNL1       -0.5058
     13 C          19.3912   14.5721   42.1235 C.ar    1  UNL1        0.0223
     14 C          12.8235   11.9586   43.0553 C.ar    1  UNL1       -0.0057
     15 C          12.5279   14.3517   43.1155 C.ar    1  UNL1       -0.0473
     16 C          18.6483   14.3343   40.9772 C.ar    1  UNL1        0.1239
     17 C          11.4696   11.7966   42.7359 C.ar    1  UNL1        0.1592
     18 C          11.1824   14.1840   42.7796 C.ar    1  UNL1       -0.0155
     19 O          19.2969   14.4862   39.7819 O.3     1  UNL1       -0.5065
     20 O          10.9760   10.5291   42.6445 O.3     1  UNL1       -0.5033
     21 C          10.6380   12.9161   42.5707 C.ar    1  UNL1        0.1652
     22 O           9.2671   12.8542   42.3075 O.3     1  UNL1       -0.4572
     23 C           8.2449   12.2028   43.1297 C.3     1  UNL1        0.2310
     24 O           7.0618   11.8547   42.3524 O.3     1  UNL1       -0.3313
     25 C           7.8138   13.1566   44.2743 C.3     1  UNL1        0.1454
     26 C           6.3723   12.9763   41.7372 C.3     1  UNL1        0.1140
     27 O           8.9511   13.5437   45.0536 O.3     1  UNL1       -0.3829
     28 C           7.1046   14.4069   43.6975 C.3     1  UNL1        0.1152
     29 C           5.9024   13.9858   42.8235 C.3     1  UNL1        0.1120
     30 C           5.2414   12.4616   40.8120 C.3     1  UNL1        0.0731
     31 O           6.6208   15.2474   44.7503 O.3     1  UNL1       -0.3864
     32 O           4.8698   13.4569   43.6753 O.3     1  UNL1       -0.3865
     33 O           4.5334   13.5177   40.1512 O.3     1  UNL1       -0.3924
     34 H          15.2784   12.8990   46.4130 H       1  UNL1        0.2924
     35 H          16.7066   13.7659   40.2007 H       1  UNL1        0.0691
     36 H          19.4738   13.9175   45.0556 H       1  UNL1        0.2922
     37 H          20.4371   14.8613   42.0395 H       1  UNL1        0.0691
     38 H          13.4531   11.0795   43.1654 H       1  UNL1        0.0662
     39 H          12.9131   15.3566   43.2699 H       1  UNL1        0.0626
     40 H          10.5435   15.0588   42.6899 H       1  UNL1        0.0655
     41 H          19.0432   13.8356   39.1133 H       1  UNL1        0.2921
     42 H          11.6676    9.8918   42.8771 H       1  UNL1        0.2923
     43 H           8.6540   11.2854   43.5732 H       1  UNL1        0.1084
     44 H           7.1198   12.6193   44.9266 H       1  UNL1        0.0683
     45 H           7.0975   13.4897   41.0987 H       1  UNL1        0.0647
     46 H           9.3466   12.7401   45.4340 H       1  UNL1        0.2102
     47 H           7.8165   14.9700   43.0879 H       1  UNL1        0.0648
     48 H           5.5107   14.8768   42.3247 H       1  UNL1        0.0647
     49 H           4.5318   11.8840   41.4106 H       1  UNL1        0.0584
     50 H           5.6722   11.7974   40.0581 H       1  UNL1        0.0584
     51 H           6.0977   15.9511   44.3152 H       1  UNL1        0.2100
     52 H           4.0347   13.9351   43.5108 H       1  UNL1        0.2100
     53 H           5.1428   14.0008   39.5664 H       1  UNL1        0.2095
@<TRIPOS>BOND
     1     1     2    2
     2     2     3   ar
     3     2     4   ar
     4     3     5    1
     5     3     6   ar
     6     4     7   ar
     7     4     8   ar
     8     6     9   ar
     9     6    10    1
    10     7    11   ar
    11     8    12    1
    12     8    13   ar
    13    10    14   ar
    14    10    15   ar
    15    11    16   ar
    16    14    17   ar
    17    15    18   ar
    18    16    19    1
    19    17    20    1
    20    17    21   ar
    21    21    22    1
    22    22    23    1
    23    23    24    1
    24    23    25    1
    25    24    26    1
    26    25    27    1
    27    25    28    1
    28    26    29    1
    29    26    30    1
    30    28    31    1
    31    29    32    1
    32    30    33    1
    33     7     9   ar
    34    13    16   ar
    35    18    21   ar
    36    28    29    1
    37     5    34    1
    38    11    35    1
    39    12    36    1
    40    13    37    1
    41    14    38    1
    42    15    39    1
    43    18    40    1
    44    19    41    1
    45    20    42    1
    46    23    43    1
    47    25    44    1
    48    26    45    1
    49    27    46    1
    50    28    47    1
    51    29    48    1
    52    30    49    1
    53    30    50    1
    54    31    51    1
    55    32    52    1
    56    33    53    1
@<TRIPOS>SUBSTRUCTURE
     1 UNL1        1 TEMP              0 ****  ****    0 ROOT


##########                                Name:                  97
##########                DOCK_Rotatable_Bonds:                  12
##########                         Heavy_Atoms:                  33
##########                    Molecular_Weight:             464.382
##########                       Formal_Charge:         0.000100136
##########                     HBond_Acceptors:                  12
##########                        HBond_Donors:                   8
##########                    Descriptor_Score:           28.367842
##########          Footprint_Similarity_Score:            6.153931
##########                 desc_FPS_vdw_energy:          -42.657314
##########                  desc_FPS_es_energy:           -4.332718
##########              desc_FPS_vdw+es_energy:          -46.990032
##########                  desc_FPS_num_hbond:                   3
##########                    desc_FPS_vdw_fps:            4.178829
##########                     desc_FPS_es_fps:            1.975102
##########                     desc_FPS_hb_fps:            2.236068
##########              desc_FPS_vdw_fp_numres:                 219
##########               desc_FPS_es_fp_numres:                 219
##########               desc_FPS_hb_fp_numres:                 219
##########                 Pharmacophore_Score:           20.000000
##########              desc_FMS_num_match_tot:                   0
##########              desc_FMS_max_match_ref:                  10
##########              desc_FMS_max_match_mol:                  24
##########                 desc_FMS_match_rate:            4.000000
##########                desc_FMS_match_resid:            0.000000
##########    desc_FMS_num_hydrophobic_matched:                   0
##########          desc_FMS_num_donor_matched:                   0
##########       desc_FMS_num_acceptor_matched:                   0
##########       desc_FMS_num_aromatic_matched:                   0
##########       desc_FMS_num_positive_matched:                   0
##########       desc_FMS_num_negative_matched:                   0
##########           desc_FMS_num_ring_matched:                   0
########## Hungarian_Matching_Similarity_Score:            2.504881
##########       desc_HMS_num_unmtchd_hvy_atms:                  20
##########           desc_HMS_num_ref_hvy_atms:                  23
##########        desc_HMS_rmsd_mtchd_hvy_atms:            3.157055
##########               Property_Volume_Score:            0.290970
##########               desc_VOS_geometric_vo:            0.548247
##########                desc_VOS_hvy_atom_vo:            0.465084
##########            desc_VOS_pos_chrg_atm_vo:            0.194393
##########            desc_VOS_neg_chrg_atm_vo:            0.210107
##########         desc_VOS_hydrophobic_atm_vo:            0.261859
##########         desc_VOS_hydrophilic_atm_vo:            0.066128
##########           Internal_energy_repulsive:            6.685101

@<TRIPOS>MOLECULE
97
 53 56 1 0 0
SMALL
GASTEIGER


@<TRIPOS>ATOM
      1 O          16.9749   14.2068   45.8625 O.2     1  UNL1       -0.2830
      2 C          16.3054   13.9038   44.8902 C.ar    1  UNL1        0.2379
      3 C          14.8786   13.4909   44.9828 C.ar    1  UNL1        0.2082
      4 C          16.8202   13.9045   43.5090 C.ar    1  UNL1        0.1092
      5 O          14.4623   13.4801   46.2771 O.3     1  UNL1       -0.5007
      6 C          14.3020   13.2148   44.0457 C.ar    1  UNL1        0.1807
      7 C          15.9191   13.5134   42.5427 C.ar    1  UNL1        0.1465
      8 C          18.1560   14.2774   43.0940 C.ar    1  UNL1        0.1348
      9 O          14.6344   13.1681   42.9655 O.2     1  UNL1       -0.4507
     10 C          12.8101   12.9761   43.9719 C.ar    1  UNL1        0.0247
     11 C          16.3288   13.4869   41.1483 C.ar    1  UNL1        0.0231
     12 O          19.0790   14.6668   44.0092 O.3     1  UNL1       -0.5058
     13 C          18.5287   14.2598   41.7588 C.ar    1  UNL1        0.0223
     14 C          12.2936   11.7828   43.4334 C.ar    1  UNL1       -0.0057
     15 C          11.8995   13.9461   44.4246 C.ar    1  UNL1       -0.0473
     16 C          17.6276   13.8669   40.7810 C.ar    1  UNL1        0.1239
     17 C          10.9126   11.5649   43.3528 C.ar    1  UNL1        0.1592
     18 C          10.5230   13.7298   44.3252 C.ar    1  UNL1       -0.0155
     19 O          18.0788   13.8782   39.4891 O.3     1  UNL1       -0.5065
     20 O          10.4761   10.3543   42.9029 O.3     1  UNL1       -0.5033
     21 C          10.0098   12.5528   43.7785 C.ar    1  UNL1        0.1652
     22 O           8.6203   12.4062   43.7890 O.3     1  UNL1       -0.4572
     23 C           7.6781   12.9057   42.7849 C.3     1  UNL1        0.2310
     24 O           7.3355   14.3049   43.0086 O.3     1  UNL1       -0.3313
     25 C           6.3730   12.0693   42.8361 C.3     1  UNL1        0.1454
     26 C           6.6946   14.5903   44.2813 C.3     1  UNL1        0.1140
     27 O           6.6646   10.6807   42.6426 O.3     1  UNL1       -0.3829
     28 C           5.6459   12.2843   44.1867 C.3     1  UNL1        0.1152
     29 C           5.3688   13.7872   44.4128 C.3     1  UNL1        0.1120
     30 C           6.5353   16.1202   44.4643 C.3     1  UNL1        0.0731
     31 O           4.3945   11.5899   44.2060 O.3     1  UNL1       -0.3864
     32 O           4.3547   14.2184   43.4871 O.3     1  UNL1       -0.3865
     33 O           6.0340   16.4810   45.7573 O.3     1  UNL1       -0.3924
     34 H          13.8550   12.7041   46.3804 H       1  UNL1        0.2924
     35 H          15.6117   13.1722   40.3941 H       1  UNL1        0.0691
     36 H          19.9383   14.6505   43.5536 H       1  UNL1        0.2922
     37 H          19.5380   14.5539   41.4770 H       1  UNL1        0.0691
     38 H          12.9752   11.0107   43.0859 H       1  UNL1        0.0662
     39 H          12.2586   14.8767   44.8569 H       1  UNL1        0.0626
     40 H           9.8373   14.4895   44.6915 H       1  UNL1        0.0655
     41 H          17.4531   14.2608   38.8592 H       1  UNL1        0.2921
     42 H          10.3124    9.7661   43.6551 H       1  UNL1        0.2923
     43 H           8.1173   12.8094   41.7832 H       1  UNL1        0.1084
     44 H           5.7217   12.3981   42.0216 H       1  UNL1        0.0683
     45 H           7.3717   14.2440   45.0681 H       1  UNL1        0.0647
     46 H           7.2321   10.3844   43.3754 H       1  UNL1        0.2102
     47 H           6.2780   11.9066   44.9949 H       1  UNL1        0.0648
     48 H           4.9824   13.9170   45.4277 H       1  UNL1        0.0647
     49 H           5.8463   16.4964   43.7032 H       1  UNL1        0.0584
     50 H           7.5058   16.6003   44.3135 H       1  UNL1        0.0584
     51 H           3.9394   11.8304   43.3734 H       1  UNL1        0.2100
     52 H           3.5590   14.4950   43.9806 H       1  UNL1        0.2100
     53 H           6.0633   17.4483   45.8584 H       1  UNL1        0.2095
@<TRIPOS>BOND
     1     1     2    2
     2     2     3   ar
     3     2     4   ar
     4     3     5    1
     5     3     6   ar
     6     4     7   ar
     7     4     8   ar
     8     6     9   ar
     9     6    10    1
    10     7    11   ar
    11     8    12    1
    12     8    13   ar
    13    10    14   ar
    14    10    15   ar
    15    11    16   ar
    16    14    17   ar
    17    15    18   ar
    18    16    19    1
    19    17    20    1
    20    17    21   ar
    21    21    22    1
    22    22    23    1
    23    23    24    1
    24    23    25    1
    25    24    26    1
    26    25    27    1
    27    25    28    1
    28    26    29    1
    29    26    30    1
    30    28    31    1
    31    29    32    1
    32    30    33    1
    33     7     9   ar
    34    13    16   ar
    35    18    21   ar
    36    28    29    1
    37     5    34    1
    38    11    35    1
    39    12    36    1
    40    13    37    1
    41    14    38    1
    42    15    39    1
    43    18    40    1
    44    19    41    1
    45    20    42    1
    46    23    43    1
    47    25    44    1
    48    26    45    1
    49    27    46    1
    50    28    47    1
    51    29    48    1
    52    30    49    1
    53    30    50    1
    54    31    51    1
    55    32    52    1
    56    33    53    1
@<TRIPOS>SUBSTRUCTURE
     1 UNL1        1 TEMP              0 ****  ****    0 ROOT


##########                                Name:                  97
##########                DOCK_Rotatable_Bonds:                  12
##########                         Heavy_Atoms:                  33
##########                    Molecular_Weight:             464.382
##########                       Formal_Charge:         0.000100136
##########                     HBond_Acceptors:                  12
##########                        HBond_Donors:                   8
##########                    Descriptor_Score:           28.374048
##########          Footprint_Similarity_Score:            6.142973
##########                 desc_FPS_vdw_energy:          -42.669800
##########                  desc_FPS_es_energy:           -4.461519
##########              desc_FPS_vdw+es_energy:          -47.131317
##########                  desc_FPS_num_hbond:                   3
##########                    desc_FPS_vdw_fps:            4.146260
##########                     desc_FPS_es_fps:            1.996713
##########                     desc_FPS_hb_fps:            2.236068
##########              desc_FPS_vdw_fp_numres:                 219
##########               desc_FPS_es_fp_numres:                 219
##########               desc_FPS_hb_fp_numres:                 219
##########                 Pharmacophore_Score:           20.000000
##########              desc_FMS_num_match_tot:                   0
##########              desc_FMS_max_match_ref:                  10
##########              desc_FMS_max_match_mol:                  24
##########                 desc_FMS_match_rate:            4.000000
##########                desc_FMS_match_resid:            0.000000
##########    desc_FMS_num_hydrophobic_matched:                   0
##########          desc_FMS_num_donor_matched:                   0
##########       desc_FMS_num_acceptor_matched:                   0
##########       desc_FMS_num_aromatic_matched:                   0
##########       desc_FMS_num_positive_matched:                   0
##########       desc_FMS_num_negative_matched:                   0
##########           desc_FMS_num_ring_matched:                   0
########## Hungarian_Matching_Similarity_Score:            2.522539
##########       desc_HMS_num_unmtchd_hvy_atms:                  20
##########           desc_HMS_num_ref_hvy_atms:                  23
##########        desc_HMS_rmsd_mtchd_hvy_atms:            3.174713
##########               Property_Volume_Score:            0.291463
##########               desc_VOS_geometric_vo:            0.551266
##########                desc_VOS_hvy_atom_vo:            0.466817
##########            desc_VOS_pos_chrg_atm_vo:            0.196375
##########            desc_VOS_neg_chrg_atm_vo:            0.208174
##########         desc_VOS_hydrophobic_atm_vo:            0.259556
##########         desc_VOS_hydrophilic_atm_vo:            0.066589
##########           Internal_energy_repulsive:            6.868703

@<TRIPOS>MOLECULE
97
 53 56 1 0 0
SMALL
GASTEIGER


@<TRIPOS>ATOM
      1 O          16.9859   14.1997   45.8090 O.2     1  UNL1       -0.2830
      2 C          16.3148   13.8943   44.8385 C.ar    1  UNL1        0.2379
      3 C          14.8930   13.4659   44.9362 C.ar    1  UNL1        0.2082
      4 C          16.8226   13.9071   43.4549 C.ar    1  UNL1        0.1092
      5 O          14.4832   13.4444   46.2325 O.3     1  UNL1       -0.5007
      6 C          14.3146   13.1883   44.0006 C.ar    1  UNL1        0.1807
      7 C          15.9209   13.5111   42.4911 C.ar    1  UNL1        0.1465
      8 C          18.1523   14.2961   43.0351 C.ar    1  UNL1        0.1348
      9 O          14.6421   13.1502   42.9186 O.2     1  UNL1       -0.4507
     10 C          12.8250   12.9341   43.9330 C.ar    1  UNL1        0.0247
     11 C          16.3239   13.4957   41.0946 C.ar    1  UNL1        0.0231
     12 O          19.0757   14.6908   43.9476 O.3     1  UNL1       -0.5058
     13 C          18.5186   14.2888   41.6980 C.ar    1  UNL1        0.0223
     14 C          12.3200   11.7154   43.4426 C.ar    1  UNL1       -0.0057
     15 C          11.9050   13.9141   44.3434 C.ar    1  UNL1       -0.0473
     16 C          17.6168   13.8911   40.7228 C.ar    1  UNL1        0.1239
     17 C          10.9410   11.4827   43.3676 C.ar    1  UNL1        0.1592
     18 C          10.5306   13.6823   44.2495 C.ar    1  UNL1       -0.0155
     19 O          18.0614   13.9134   39.4288 O.3     1  UNL1       -0.5065
     20 O          10.5159   10.2511   42.9666 O.3     1  UNL1       -0.5033
     21 C          10.0288   12.4796   43.7503 C.ar    1  UNL1        0.1652
     22 O           8.6405   12.3218   43.7634 O.3     1  UNL1       -0.4572
     23 C           7.6916   12.8226   42.7663 C.3     1  UNL1        0.2310
     24 O           7.3843   14.2333   42.9679 O.3     1  UNL1       -0.3313
     25 C           6.3693   12.0170   42.8576 C.3     1  UNL1        0.1454
     26 C           6.7733   14.5581   44.2459 C.3     1  UNL1        0.1140
     27 O           6.6265   10.6187   42.6869 O.3     1  UNL1       -0.3829
     28 C           5.6720   12.2750   44.2163 C.3     1  UNL1        0.1152
     29 C           5.4325   13.7879   44.4171 C.3     1  UNL1        0.1120
     30 C           6.6513   16.0946   44.4008 C.3     1  UNL1        0.0731
     31 O           4.4060   11.6096   44.2719 O.3     1  UNL1       -0.3864
     32 O           4.4115   14.2237   43.5010 O.3     1  UNL1       -0.3865
     33 O           5.8554   16.4831   45.5273 O.3     1  UNL1       -0.3924
     34 H          13.7579   12.7725   46.2968 H       1  UNL1        0.2924
     35 H          15.6065   13.1770   40.3425 H       1  UNL1        0.0691
     36 H          19.9350   14.6711   43.4920 H       1  UNL1        0.2922
     37 H          19.5233   14.5950   41.4127 H       1  UNL1        0.0691
     38 H          13.0090   10.9356   43.1287 H       1  UNL1        0.0662
     39 H          12.2552   14.8646   44.7381 H       1  UNL1        0.0626
     40 H           9.8377   14.4505   44.5828 H       1  UNL1        0.0655
     41 H          17.3593   14.0360   38.7756 H       1  UNL1        0.2921
     42 H          10.4942    9.6499   43.7260 H       1  UNL1        0.2923
     43 H           8.1101   12.6966   41.7591 H       1  UNL1        0.1084
     44 H           5.7108   12.3444   42.0484 H       1  UNL1        0.0683
     45 H           7.4567   14.2122   45.0272 H       1  UNL1        0.0647
     46 H           5.7719   10.1549   42.6498 H       1  UNL1        0.2102
     47 H           6.3102   11.8991   45.0206 H       1  UNL1        0.0648
     48 H           5.0676   13.9464   45.4358 H       1  UNL1        0.0647
     49 H           6.2001   16.5056   43.4937 H       1  UNL1        0.0584
     50 H           7.6515   16.5225   44.5087 H       1  UNL1        0.0584
     51 H           3.8002   12.1344   43.7099 H       1  UNL1        0.2100
     52 H           3.6171   14.4913   44.0014 H       1  UNL1        0.2100
     53 H           5.0375   15.9564   45.5439 H       1  UNL1        0.2095
@<TRIPOS>BOND
     1     1     2    2
     2     2     3   ar
     3     2     4   ar
     4     3     5    1
     5     3     6   ar
     6     4     7   ar
     7     4     8   ar
     8     6     9   ar
     9     6    10    1
    10     7    11   ar
    11     8    12    1
    12     8    13   ar
    13    10    14   ar
    14    10    15   ar
    15    11    16   ar
    16    14    17   ar
    17    15    18   ar
    18    16    19    1
    19    17    20    1
    20    17    21   ar
    21    21    22    1
    22    22    23    1
    23    23    24    1
    24    23    25    1
    25    24    26    1
    26    25    27    1
    27    25    28    1
    28    26    29    1
    29    26    30    1
    30    28    31    1
    31    29    32    1
    32    30    33    1
    33     7     9   ar
    34    13    16   ar
    35    18    21   ar
    36    28    29    1
    37     5    34    1
    38    11    35    1
    39    12    36    1
    40    13    37    1
    41    14    38    1
    42    15    39    1
    43    18    40    1
    44    19    41    1
    45    20    42    1
    46    23    43    1
    47    25    44    1
    48    26    45    1
    49    27    46    1
    50    28    47    1
    51    29    48    1
    52    30    49    1
    53    30    50    1
    54    31    51    1
    55    32    52    1
    56    33    53    1
@<TRIPOS>SUBSTRUCTURE
     1 UNL1        1 TEMP              0 ****  ****    0 ROOT


##########                                Name:                 100
##########                DOCK_Rotatable_Bonds:                   4
##########                         Heavy_Atoms:                  22
##########                    Molecular_Weight:             294.396
##########                       Formal_Charge:        -2.08616e-07
##########                     HBond_Acceptors:                   3
##########                        HBond_Donors:                   1
##########                    Descriptor_Score:           10.373652
##########          Footprint_Similarity_Score:            3.101888
##########                 desc_FPS_vdw_energy:          -31.920795
##########                  desc_FPS_es_energy:           -0.952787
##########              desc_FPS_vdw+es_energy:          -32.873581
##########                  desc_FPS_num_hbond:                   1
##########                    desc_FPS_vdw_fps:            1.749432
##########                     desc_FPS_es_fps:            1.352456
##########                     desc_FPS_hb_fps:            1.000000
##########              desc_FPS_vdw_fp_numres:                 219
##########               desc_FPS_es_fp_numres:                 219
##########               desc_FPS_hb_fp_numres:                 219
##########                 Pharmacophore_Score:            5.681216
##########              desc_FMS_num_match_tot:                   1
##########              desc_FMS_max_match_ref:                  10
##########              desc_FMS_max_match_mol:                  10
##########                 desc_FMS_match_rate:            0.900000
##########                desc_FMS_match_resid:            1.181216
##########    desc_FMS_num_hydrophobic_matched:                   0
##########          desc_FMS_num_donor_matched:                   0
##########       desc_FMS_num_acceptor_matched:                   1
##########       desc_FMS_num_aromatic_matched:                   0
##########       desc_FMS_num_positive_matched:                   0
##########       desc_FMS_num_negative_matched:                   0
##########           desc_FMS_num_ring_matched:                   0
########## Hungarian_Matching_Similarity_Score:            2.084411
##########       desc_HMS_num_unmtchd_hvy_atms:                  19
##########           desc_HMS_num_ref_hvy_atms:                  23
##########        desc_HMS_rmsd_mtchd_hvy_atms:            2.953976
##########               Property_Volume_Score:            0.493863
##########               desc_VOS_geometric_vo:            0.661418
##########                desc_VOS_hvy_atom_vo:            0.643795
##########            desc_VOS_pos_chrg_atm_vo:            0.288165
##########            desc_VOS_neg_chrg_atm_vo:            0.525201
##########         desc_VOS_hydrophobic_atm_vo:            0.587178
##########         desc_VOS_hydrophilic_atm_vo:            0.257424
##########           Internal_energy_repulsive:           11.407982

@<TRIPOS>MOLECULE
100
 44 47 1 0 0
SMALL
GASTEIGER


@<TRIPOS>ATOM
      1 O          11.4961   12.0884   41.3185 O.3     1  UNL1       -0.3856
      2 C          11.1832   12.8529   42.4882 C.3     1  UNL1        0.0963
      3 C           9.7761   12.5467   43.0117 C.ar    1  UNL1       -0.0071
      4 C          12.2727   12.7185   43.5933 C.3     1  UNL1        0.0408
      5 C           8.8942   13.5650   43.4275 C.ar    1  UNL1        0.0061
      6 C           9.3216   11.2268   43.0637 C.ar    1  UNL1       -0.0373
      7 N          13.4032   11.7699   43.2994 N.3     1  UNL1       -0.2960
      8 C          12.8264   14.1058   44.0419 C.3     1  UNL1       -0.0312
      9 C           7.5915   13.2154   43.8377 C.ar    1  UNL1        0.0713
     10 C           9.2760   14.9156   43.4465 C.ar    1  UNL1       -0.0522
     11 C           8.0219   10.9626   43.4823 C.ar    1  UNL1        0.0286
     12 C          14.3709   12.2917   42.2849 C.3     1  UNL1        0.0058
     13 C          14.1647   11.5526   44.5643 C.3     1  UNL1       -0.0004
     14 C          14.3722   14.0490   44.1116 C.3     1  UNL1       -0.0310
     15 N           7.1645   11.9328   43.8573 N.ar    1  UNL1       -0.2550
     16 C           6.7069   14.2196   44.2372 C.ar    1  UNL1       -0.0357
     17 C           8.3826   15.9017   43.8556 C.ar    1  UNL1       -0.0611
     18 C          14.8698   13.7142   42.6777 C.3     1  UNL1       -0.0075
     19 C          14.7557   12.8974   45.0817 C.3     1  UNL1       -0.0367
     20 C           7.0962   15.5551   44.2469 C.ar    1  UNL1       -0.0597
     21 C          16.3751   13.8433   42.5468 C.2     1  UNL1       -0.0865
     22 C          17.0117   13.8539   41.3833 C.2     1  UNL1       -0.1023
     23 H          12.4655   12.0288   41.2454 H       1  UNL1        0.2103
     24 H          11.1967   13.8912   42.1509 H       1  UNL1        0.0659
     25 H          11.7506   12.3056   44.4614 H       1  UNL1        0.0491
     26 H           9.9652   10.3997   42.7740 H       1  UNL1        0.0636
     27 H          12.4163   14.3631   45.0216 H       1  UNL1        0.0284
     28 H          12.5177   14.8952   43.3521 H       1  UNL1        0.0284
     29 H          10.2726   15.2305   43.1574 H       1  UNL1        0.0624
     30 H           7.6357    9.9462   43.5181 H       1  UNL1        0.0830
     31 H          13.9197   12.3167   41.2917 H       1  UNL1        0.0432
     32 H          15.2223   11.6072   42.2270 H       1  UNL1        0.0432
     33 H          14.9778   10.8416   44.3884 H       1  UNL1        0.0427
     34 H          13.5050   11.1256   45.3251 H       1  UNL1        0.0427
     35 H          14.7749   15.0053   44.4548 H       1  UNL1        0.0308
     36 H           5.6974   13.9582   44.5485 H       1  UNL1        0.0639
     37 H           8.6939   16.9437   43.8689 H       1  UNL1        0.0618
     38 H          14.4059   14.4274   41.9903 H       1  UNL1        0.0358
     39 H          15.8411   12.8183   45.1722 H       1  UNL1        0.0280
     40 H          14.3666   13.1091   46.0806 H       1  UNL1        0.0280
     41 H           6.3969   16.3244   44.5642 H       1  UNL1        0.0618
     42 H          16.9414   13.9273   43.4710 H       1  UNL1        0.0570
     43 H          16.4755   13.7683   40.4410 H       1  UNL1        0.0532
     44 H          18.0937   13.9486   41.3372 H       1  UNL1        0.0532
@<TRIPOS>BOND
     1     1     2    1
     2     2     3    1
     3     2     4    1
     4     3     5   ar
     5     3     6   ar
     6     4     7    1
     7     4     8    1
     8     5     9   ar
     9     5    10   ar
    10     6    11   ar
    11     7    12    1
    12     7    13    1
    13     8    14    1
    14     9    15   ar
    15     9    16   ar
    16    10    17   ar
    17    12    18    1
    18    13    19    1
    19    16    20   ar
    20    18    21    1
    21    21    22    2
    22    11    15   ar
    23    14    18    1
    24    14    19    1
    25    17    20   ar
    26     1    23    1
    27     2    24    1
    28     4    25    1
    29     6    26    1
    30     8    27    1
    31     8    28    1
    32    10    29    1
    33    11    30    1
    34    12    31    1
    35    12    32    1
    36    13    33    1
    37    13    34    1
    38    14    35    1
    39    16    36    1
    40    17    37    1
    41    18    38    1
    42    19    39    1
    43    19    40    1
    44    20    41    1
    45    21    42    1
    46    22    43    1
    47    22    44    1
@<TRIPOS>SUBSTRUCTURE
     1 UNL1        1 TEMP              0 ****  ****    0 ROOT


##########                                Name:                 100
##########                DOCK_Rotatable_Bonds:                   4
##########                         Heavy_Atoms:                  22
##########                    Molecular_Weight:             294.396
##########                       Formal_Charge:        -2.08616e-07
##########                     HBond_Acceptors:                   3
##########                        HBond_Donors:                   1
##########                    Descriptor_Score:           26.854555
##########          Footprint_Similarity_Score:            4.705491
##########                 desc_FPS_vdw_energy:          -32.407513
##########                  desc_FPS_es_energy:           -1.467716
##########              desc_FPS_vdw+es_energy:          -33.875229
##########                  desc_FPS_num_hbond:                   1
##########                    desc_FPS_vdw_fps:            3.705859
##########                     desc_FPS_es_fps:            0.999632
##########                     desc_FPS_hb_fps:            1.000000
##########              desc_FPS_vdw_fp_numres:                 219
##########               desc_FPS_es_fp_numres:                 219
##########               desc_FPS_hb_fp_numres:                 219
##########                 Pharmacophore_Score:           20.000000
##########              desc_FMS_num_match_tot:                   0
##########              desc_FMS_max_match_ref:                  10
##########              desc_FMS_max_match_mol:                  10
##########                 desc_FMS_match_rate:            4.000000
##########                desc_FMS_match_resid:            0.000000
##########    desc_FMS_num_hydrophobic_matched:                   0
##########          desc_FMS_num_donor_matched:                   0
##########       desc_FMS_num_acceptor_matched:                   0
##########       desc_FMS_num_aromatic_matched:                   0
##########       desc_FMS_num_positive_matched:                   0
##########       desc_FMS_num_negative_matched:                   0
##########           desc_FMS_num_ring_matched:                   0
########## Hungarian_Matching_Similarity_Score:            2.521486
##########       desc_HMS_num_unmtchd_hvy_atms:                  19
##########           desc_HMS_num_ref_hvy_atms:                  23
##########        desc_HMS_rmsd_mtchd_hvy_atms:            3.391051
##########               Property_Volume_Score:            0.372421
##########               desc_VOS_geometric_vo:            0.501953
##########                desc_VOS_hvy_atom_vo:            0.486710
##########            desc_VOS_pos_chrg_atm_vo:            0.231934
##########            desc_VOS_neg_chrg_atm_vo:            0.381572
##########         desc_VOS_hydrophobic_atm_vo:            0.421674
##########         desc_VOS_hydrophilic_atm_vo:            0.210685
##########           Internal_energy_repulsive:           13.493222

@<TRIPOS>MOLECULE
100
 44 47 1 0 0
SMALL
GASTEIGER


@<TRIPOS>ATOM
      1 O          11.8518   11.8700   41.0259 O.3     1  UNL1       -0.3856
      2 C          11.3705   12.7726   42.0280 C.3     1  UNL1        0.0963
      3 C           9.8816   12.5605   42.3207 C.ar    1  UNL1       -0.0071
      4 C          12.2417   12.7443   43.3190 C.3     1  UNL1        0.0408
      5 C           8.8923   13.4470   41.8486 C.ar    1  UNL1        0.0061
      6 C           9.4652   11.4472   43.0546 C.ar    1  UNL1       -0.0373
      7 N          13.4875   11.9024   43.2611 N.3     1  UNL1       -0.2960
      8 C          12.5754   14.1789   43.8321 C.3     1  UNL1       -0.0312
      9 C           7.5363   13.1553   42.1015 C.ar    1  UNL1        0.0713
     10 C           9.2182   14.6116   41.1361 C.ar    1  UNL1       -0.0522
     11 C           8.1076   11.2292   43.2636 C.ar    1  UNL1        0.0286
     12 C          14.5772   12.5062   42.4327 C.3     1  UNL1        0.0058
     13 C          14.0155   11.7622   44.6499 C.3     1  UNL1       -0.0004
     14 C          14.0796   14.2649   44.1889 C.3     1  UNL1       -0.0310
     15 N           7.1545   12.0586   42.7937 N.ar    1  UNL1       -0.2550
     16 C           6.5494   14.0208   41.6245 C.ar    1  UNL1       -0.0357
     17 C           8.2205   15.4664   40.6755 C.ar    1  UNL1       -0.0611
     18 C          14.8646   13.9704   42.8801 C.3     1  UNL1       -0.0075
     19 C          14.3765   13.1582   45.2384 C.3     1  UNL1       -0.0367
     20 C           6.8855   15.1695   40.9154 C.ar    1  UNL1       -0.0597
     21 C          16.3500   14.2368   43.0283 C.2     1  UNL1       -0.0865
     22 C          16.8501   15.3954   43.4365 C.2     1  UNL1       -0.1023
     23 H          12.7115   12.1996   40.7083 H       1  UNL1        0.2103
     24 H          11.4872   13.7638   41.5854 H       1  UNL1        0.0659
     25 H          11.6056   12.2893   44.0838 H       1  UNL1        0.0491
     26 H          10.1855   10.7407   43.4600 H       1  UNL1        0.0636
     27 H          11.9679   14.4021   44.7126 H       1  UNL1        0.0284
     28 H          12.3317   14.9331   43.0797 H       1  UNL1        0.0284
     29 H          10.2473   14.8867   40.9333 H       1  UNL1        0.0624
     30 H           7.7534   10.3627   43.8178 H       1  UNL1        0.0830
     31 H          14.3194   12.4847   41.3727 H       1  UNL1        0.0432
     32 H          15.4822   11.9026   42.5490 H       1  UNL1        0.0432
     33 H          14.9074   11.1282   44.6437 H       1  UNL1        0.0427
     34 H          13.2661   11.2800   45.2841 H       1  UNL1        0.0427
     35 H          14.3238   15.2558   44.5798 H       1  UNL1        0.0308
     36 H           5.5003   13.7987   41.8098 H       1  UNL1        0.0639
     37 H           8.4885   16.3673   40.1283 H       1  UNL1        0.0618
     38 H          14.4754   14.6345   42.1031 H       1  UNL1        0.0358
     39 H          15.4284   13.1797   45.5306 H       1  UNL1        0.0280
     40 H          13.7901   13.3380   46.1428 H       1  UNL1        0.0280
     41 H           6.1055   15.8348   40.5542 H       1  UNL1        0.0618
     42 H          17.0214   13.4193   42.7775 H       1  UNL1        0.0570
     43 H          16.2063   16.2341   43.6917 H       1  UNL1        0.0532
     44 H          17.9233   15.5417   43.5281 H       1  UNL1        0.0532
@<TRIPOS>BOND
     1     1     2    1
     2     2     3    1
     3     2     4    1
     4     3     5   ar
     5     3     6   ar
     6     4     7    1
     7     4     8    1
     8     5     9   ar
     9     5    10   ar
    10     6    11   ar
    11     7    12    1
    12     7    13    1
    13     8    14    1
    14     9    15   ar
    15     9    16   ar
    16    10    17   ar
    17    12    18    1
    18    13    19    1
    19    16    20   ar
    20    18    21    1
    21    21    22    2
    22    11    15   ar
    23    14    18    1
    24    14    19    1
    25    17    20   ar
    26     1    23    1
    27     2    24    1
    28     4    25    1
    29     6    26    1
    30     8    27    1
    31     8    28    1
    32    10    29    1
    33    11    30    1
    34    12    31    1
    35    12    32    1
    36    13    33    1
    37    13    34    1
    38    14    35    1
    39    16    36    1
    40    17    37    1
    41    18    38    1
    42    19    39    1
    43    19    40    1
    44    20    41    1
    45    21    42    1
    46    22    43    1
    47    22    44    1
@<TRIPOS>SUBSTRUCTURE
     1 UNL1        1 TEMP              0 ****  ****    0 ROOT


##########                                Name:                 100
##########                DOCK_Rotatable_Bonds:                   4
##########                         Heavy_Atoms:                  22
##########                    Molecular_Weight:             294.396
##########                       Formal_Charge:        -2.08616e-07
##########                     HBond_Acceptors:                   3
##########                        HBond_Donors:                   1
##########                    Descriptor_Score:           26.109480
##########          Footprint_Similarity_Score:            4.462808
##########                 desc_FPS_vdw_energy:          -32.080692
##########                  desc_FPS_es_energy:           -0.623702
##########              desc_FPS_vdw+es_energy:          -32.704395
##########                  desc_FPS_num_hbond:                   0
##########                    desc_FPS_vdw_fps:            2.852898
##########                     desc_FPS_es_fps:            1.609909
##########                     desc_FPS_hb_fps:            0.000000
##########              desc_FPS_vdw_fp_numres:                 219
##########               desc_FPS_es_fp_numres:                 219
##########               desc_FPS_hb_fp_numres:                 219
##########                 Pharmacophore_Score:           20.000000
##########              desc_FMS_num_match_tot:                   0
##########              desc_FMS_max_match_ref:                  10
##########              desc_FMS_max_match_mol:                  10
##########                 desc_FMS_match_rate:            4.000000
##########                desc_FMS_match_resid:            0.000000
##########    desc_FMS_num_hydrophobic_matched:                   0
##########          desc_FMS_num_donor_matched:                   0
##########       desc_FMS_num_acceptor_matched:                   0
##########       desc_FMS_num_aromatic_matched:                   0
##########       desc_FMS_num_positive_matched:                   0
##########       desc_FMS_num_negative_matched:                   0
##########           desc_FMS_num_ring_matched:                   0
########## Hungarian_Matching_Similarity_Score:            2.109499
##########       desc_HMS_num_unmtchd_hvy_atms:                  19
##########           desc_HMS_num_ref_hvy_atms:                  23
##########        desc_HMS_rmsd_mtchd_hvy_atms:            2.979064
##########               Property_Volume_Score:            0.462826
##########               desc_VOS_geometric_vo:            0.660377
##########                desc_VOS_hvy_atom_vo:            0.662233
##########            desc_VOS_pos_chrg_atm_vo:            0.282772
##########            desc_VOS_neg_chrg_atm_vo:            0.506840
##########         desc_VOS_hydrophobic_atm_vo:            0.571365
##########         desc_VOS_hydrophilic_atm_vo:            0.093371
##########           Internal_energy_repulsive:           12.270042

@<TRIPOS>MOLECULE
100
 44 47 1 0 0
SMALL
GASTEIGER


@<TRIPOS>ATOM
      1 O          13.3456   11.3587   43.1688 O.3     1  UNL1       -0.3856
      2 C          13.2316   12.5671   43.9285 C.3     1  UNL1        0.0963
      3 C          14.6032   13.1467   44.2896 C.ar    1  UNL1       -0.0071
      4 C          12.3042   13.6137   43.2422 C.3     1  UNL1        0.0408
      5 C          15.5775   13.4294   43.3106 C.ar    1  UNL1        0.0061
      6 C          14.9112   13.4363   45.6210 C.ar    1  UNL1       -0.0373
      7 N          11.3624   13.0816   42.1962 N.3     1  UNL1       -0.2960
      8 C          11.5315   14.4825   44.2817 C.3     1  UNL1       -0.0312
      9 C          16.7937   14.0216   43.7078 C.ar    1  UNL1        0.0713
     10 C          15.3725   13.1370   41.9532 C.ar    1  UNL1       -0.0522
     11 C          16.1348   14.0191   45.9332 C.ar    1  UNL1        0.0286
     12 C          10.2156   12.3073   42.7650 C.3     1  UNL1        0.0058
     13 C          10.7869   14.2440   41.4583 C.3     1  UNL1       -0.0004
     14 C          10.0424   14.5824   43.8690 C.3     1  UNL1       -0.0310
     15 N          17.0612   14.3156   45.0000 N.ar    1  UNL1       -0.2550
     16 C          17.7582   14.3182   42.7423 C.ar    1  UNL1       -0.0357
     17 C          16.3491   13.4330   41.0063 C.ar    1  UNL1       -0.0611
     18 C           9.4838   13.1319   43.8654 C.3     1  UNL1       -0.0075
     19 C           9.9930   15.1666   42.4299 C.3     1  UNL1       -0.0367
     20 C          17.5406   14.0277   41.3993 C.ar    1  UNL1       -0.0597
     21 C           7.9776   13.0964   43.6931 C.2     1  UNL1       -0.0865
     22 C           7.1452   13.8913   44.3521 C.2     1  UNL1       -0.1023
     23 H          13.3957   10.6120   43.7921 H       1  UNL1        0.2103
     24 H          12.7409   12.2648   44.8558 H       1  UNL1        0.0659
     25 H          12.9805   14.2965   42.7196 H       1  UNL1        0.0491
     26 H          14.2057   13.2211   46.4199 H       1  UNL1        0.0636
     27 H          11.9758   15.4799   44.3261 H       1  UNL1        0.0284
     28 H          11.6076   14.0569   45.2854 H       1  UNL1        0.0284
     29 H          14.4610   12.6654   41.6029 H       1  UNL1        0.0624
     30 H          16.3955   14.2699   46.9592 H       1  UNL1        0.0830
     31 H          10.5534   11.3549   43.1766 H       1  UNL1        0.0432
     32 H           9.5164   12.0712   41.9574 H       1  UNL1        0.0432
     33 H          10.1188   13.8862   40.6689 H       1  UNL1        0.0427
     34 H          11.5896   14.8159   40.9841 H       1  UNL1        0.0427
     35 H           9.4926   15.2143   44.5710 H       1  UNL1        0.0308
     36 H          18.6967   14.7817   43.0403 H       1  UNL1        0.0639
     37 H          16.1777   13.1969   39.9585 H       1  UNL1        0.0618
     38 H           9.7267   12.6804   44.8315 H       1  UNL1        0.0358
     39 H           8.9594   15.2642   42.0916 H       1  UNL1        0.0280
     40 H          10.4278   16.1690   42.4216 H       1  UNL1        0.0280
     41 H          18.3031   14.2615   40.6606 H       1  UNL1        0.0618
     42 H           7.5826   12.3695   42.9878 H       1  UNL1        0.0570
     43 H           7.5075   14.6266   45.0669 H       1  UNL1        0.0532
     44 H           6.0711   13.8307   44.1965 H       1  UNL1        0.0532
@<TRIPOS>BOND
     1     1     2    1
     2     2     3    1
     3     2     4    1
     4     3     5   ar
     5     3     6   ar
     6     4     7    1
     7     4     8    1
     8     5     9   ar
     9     5    10   ar
    10     6    11   ar
    11     7    12    1
    12     7    13    1
    13     8    14    1
    14     9    15   ar
    15     9    16   ar
    16    10    17   ar
    17    12    18    1
    18    13    19    1
    19    16    20   ar
    20    18    21    1
    21    21    22    2
    22    11    15   ar
    23    14    18    1
    24    14    19    1
    25    17    20   ar
    26     1    23    1
    27     2    24    1
    28     4    25    1
    29     6    26    1
    30     8    27    1
    31     8    28    1
    32    10    29    1
    33    11    30    1
    34    12    31    1
    35    12    32    1
    36    13    33    1
    37    13    34    1
    38    14    35    1
    39    16    36    1
    40    17    37    1
    41    18    38    1
    42    19    39    1
    43    19    40    1
    44    20    41    1
    45    21    42    1
    46    22    43    1
    47    22    44    1
@<TRIPOS>SUBSTRUCTURE
     1 UNL1        1 TEMP              0 ****  ****    0 ROOT


##########                                Name:                 101
##########                DOCK_Rotatable_Bonds:                   0
##########                         Heavy_Atoms:                  14
##########                    Molecular_Weight:             186.167
##########                       Formal_Charge:         0.000100024
##########                     HBond_Acceptors:                   3
##########                        HBond_Donors:                   0
##########                    Descriptor_Score:           42.126961
##########          Footprint_Similarity_Score:           12.707186
##########                 desc_FPS_vdw_energy:          -26.780809
##########                  desc_FPS_es_energy:            0.256548
##########              desc_FPS_vdw+es_energy:          -26.524261
##########                  desc_FPS_num_hbond:                   2
##########                    desc_FPS_vdw_fps:           10.032369
##########                     desc_FPS_es_fps:            2.674817
##########                     desc_FPS_hb_fps:            1.414214
##########              desc_FPS_vdw_fp_numres:                 219
##########               desc_FPS_es_fp_numres:                 219
##########               desc_FPS_hb_fp_numres:                 219
##########                 Pharmacophore_Score:           20.000000
##########              desc_FMS_num_match_tot:                   0
##########              desc_FMS_max_match_ref:                  10
##########              desc_FMS_max_match_mol:                   6
##########                 desc_FMS_match_rate:            4.000000
##########                desc_FMS_match_resid:            0.000000
##########    desc_FMS_num_hydrophobic_matched:                   0
##########          desc_FMS_num_donor_matched:                   0
##########       desc_FMS_num_acceptor_matched:                   0
##########       desc_FMS_num_aromatic_matched:                   0
##########       desc_FMS_num_positive_matched:                   0
##########       desc_FMS_num_negative_matched:                   0
##########           desc_FMS_num_ring_matched:                   0
########## Hungarian_Matching_Similarity_Score:            9.419776
##########       desc_HMS_num_unmtchd_hvy_atms:                  13
##########           desc_HMS_num_ref_hvy_atms:                  23
##########        desc_HMS_rmsd_mtchd_hvy_atms:           11.593689
##########               Property_Volume_Score:            0.000000
##########               desc_VOS_geometric_vo:            0.000000
##########                desc_VOS_hvy_atom_vo:            0.000000
##########            desc_VOS_pos_chrg_atm_vo:            0.000000
##########            desc_VOS_neg_chrg_atm_vo:            0.000000
##########         desc_VOS_hydrophobic_atm_vo:            0.000000
##########         desc_VOS_hydrophilic_atm_vo:            0.000000
##########           Internal_energy_repulsive:            0.399931

@<TRIPOS>MOLECULE
101
 20 22 1 0 0
SMALL
GASTEIGER


@<TRIPOS>ATOM
      1 O          21.0852    7.6735   43.0434 O.2     1  UNL1       -0.2452
      2 C          21.6570    8.1560   42.0878 C.ar    1  UNL1        0.3372
      3 O          21.6084    7.5681   40.8668 O.2     1  UNL1       -0.4220
      4 C          22.4375    9.4007   42.1467 C.ar    1  UNL1        0.0236
      5 C          22.2445    8.0309   39.7308 C.ar    1  UNL1        0.1426
      6 C          23.0771    9.9563   40.9884 C.ar    1  UNL1       -0.0443
      7 C          22.9675    9.2780   39.7822 C.ar    1  UNL1        0.0184
      8 C          22.1099    7.2559   38.5240 C.ar    1  UNL1        0.0243
      9 C          23.5331    9.7798   38.6125 C.ar    1  UNL1       -0.0403
     10 C          22.5650    7.8570   37.2939 C.ar    1  UNL1        0.1383
     11 C          23.3547    9.0423   37.3892 C.ar    1  UNL1        0.0209
     12 O          23.0089    7.1191   36.2285 O.2     1  UNL1       -0.4628
     13 C          24.3072    9.0023   36.3290 C.ar    1  UNL1       -0.0161
     14 C          24.0229    7.8455   35.6415 C.ar    1  UNL1        0.0931
     15 H          22.4811    9.8775   43.1206 H       1  UNL1        0.0689
     16 H          23.6169   10.8978   41.0506 H       1  UNL1        0.0627
     17 H          21.6650    6.2676   38.4405 H       1  UNL1        0.0692
     18 H          24.0801   10.7194   38.6203 H       1  UNL1        0.0632
     19 H          25.1354    9.6844   36.1684 H       1  UNL1        0.0655
     20 H          24.4979    7.3629   34.7956 H       1  UNL1        0.1029
@<TRIPOS>BOND
     1     1     2    2
     2     2     3   ar
     3     2     4   ar
     4     3     5   ar
     5     4     6   ar
     6     5     7   ar
     7     5     8   ar
     8     7     9   ar
     9     8    10   ar
    10     9    11   ar
    11    10    12   ar
    12    11    13   ar
    13    12    14   ar
    14     6     7   ar
    15    10    11   ar
    16    13    14   ar
    17     4    15    1
    18     6    16    1
    19     8    17    1
    20     9    18    1
    21    13    19    1
    22    14    20    1
@<TRIPOS>SUBSTRUCTURE
     1 UNL1        1 TEMP              0 ****  ****    0 ROOT


##########                                Name:                 101
##########                DOCK_Rotatable_Bonds:                   0
##########                         Heavy_Atoms:                  14
##########                    Molecular_Weight:             186.167
##########                       Formal_Charge:         0.000100024
##########                     HBond_Acceptors:                   3
##########                        HBond_Donors:                   0
##########                    Descriptor_Score:           42.232159
##########          Footprint_Similarity_Score:           12.709304
##########                 desc_FPS_vdw_energy:          -26.576857
##########                  desc_FPS_es_energy:           -0.027132
##########              desc_FPS_vdw+es_energy:          -26.603989
##########                  desc_FPS_num_hbond:                   2
##########                    desc_FPS_vdw_fps:           10.053264
##########                     desc_FPS_es_fps:            2.656039
##########                     desc_FPS_hb_fps:            1.414214
##########              desc_FPS_vdw_fp_numres:                 219
##########               desc_FPS_es_fp_numres:                 219
##########               desc_FPS_hb_fp_numres:                 219
##########                 Pharmacophore_Score:           20.000000
##########              desc_FMS_num_match_tot:                   0
##########              desc_FMS_max_match_ref:                  10
##########              desc_FMS_max_match_mol:                   6
##########                 desc_FMS_match_rate:            4.000000
##########                desc_FMS_match_resid:            0.000000
##########    desc_FMS_num_hydrophobic_matched:                   0
##########          desc_FMS_num_donor_matched:                   0
##########       desc_FMS_num_acceptor_matched:                   0
##########       desc_FMS_num_aromatic_matched:                   0
##########       desc_FMS_num_positive_matched:                   0
##########       desc_FMS_num_negative_matched:                   0
##########           desc_FMS_num_ring_matched:                   0
########## Hungarian_Matching_Similarity_Score:            9.522855
##########       desc_HMS_num_unmtchd_hvy_atms:                  13
##########           desc_HMS_num_ref_hvy_atms:                  23
##########        desc_HMS_rmsd_mtchd_hvy_atms:           11.696768
##########               Property_Volume_Score:            0.000000
##########               desc_VOS_geometric_vo:            0.000000
##########                desc_VOS_hvy_atom_vo:            0.000000
##########            desc_VOS_pos_chrg_atm_vo:            0.000000
##########            desc_VOS_neg_chrg_atm_vo:            0.000000
##########         desc_VOS_hydrophobic_atm_vo:            0.000000
##########         desc_VOS_hydrophilic_atm_vo:            0.000000
##########           Internal_energy_repulsive:            0.399961

@<TRIPOS>MOLECULE
101
 20 22 1 0 0
SMALL
GASTEIGER


@<TRIPOS>ATOM
      1 O          21.0875    7.4962   42.7392 O.2     1  UNL1       -0.2452
      2 C          21.6902    8.0302   41.8312 C.ar    1  UNL1        0.3372
      3 O          21.6311    7.5468   40.5656 O.2     1  UNL1       -0.4220
      4 C          22.5218    9.2312   41.9986 C.ar    1  UNL1        0.0236
      5 C          22.2993    8.0732   39.4767 C.ar    1  UNL1        0.1426
      6 C          23.1977    9.8516   40.8951 C.ar    1  UNL1       -0.0443
      7 C          23.0736    9.2797   39.6364 C.ar    1  UNL1        0.0184
      8 C          22.1462    7.4060   38.2092 C.ar    1  UNL1        0.0243
      9 C          23.6734    9.8506   38.5165 C.ar    1  UNL1       -0.0403
     10 C          22.6405    8.0856   37.0365 C.ar    1  UNL1        0.1383
     11 C          23.4783    9.2241   37.2353 C.ar    1  UNL1        0.0209
     12 O          23.0652    7.4189   35.9175 O.2     1  UNL1       -0.4628
     13 C          24.4405    9.2300   36.1832 C.ar    1  UNL1       -0.0161
     14 C          24.1157    8.1467   35.4006 C.ar    1  UNL1        0.0931
     15 H          22.5741    9.6244   43.0087 H       1  UNL1        0.0689
     16 H          23.7759   10.7608   41.0388 H       1  UNL1        0.0627
     17 H          21.6609    6.4479   38.0411 H       1  UNL1        0.0692
     18 H          24.2595   10.7621   38.6060 H       1  UNL1        0.0632
     19 H          25.2986    9.8868   36.0859 H       1  UNL1        0.0655
     20 H          24.5798    7.7149   34.5218 H       1  UNL1        0.1029
@<TRIPOS>BOND
     1     1     2    2
     2     2     3   ar
     3     2     4   ar
     4     3     5   ar
     5     4     6   ar
     6     5     7   ar
     7     5     8   ar
     8     7     9   ar
     9     8    10   ar
    10     9    11   ar
    11    10    12   ar
    12    11    13   ar
    13    12    14   ar
    14     6     7   ar
    15    10    11   ar
    16    13    14   ar
    17     4    15    1
    18     6    16    1
    19     8    17    1
    20     9    18    1
    21    13    19    1
    22    14    20    1
@<TRIPOS>SUBSTRUCTURE
     1 UNL1        1 TEMP              0 ****  ****    0 ROOT


##########                                Name:                 101
##########                DOCK_Rotatable_Bonds:                   0
##########                         Heavy_Atoms:                  14
##########                    Molecular_Weight:             186.167
##########                       Formal_Charge:         0.000100024
##########                     HBond_Acceptors:                   3
##########                        HBond_Donors:                   0
##########                    Descriptor_Score:           42.044601
##########          Footprint_Similarity_Score:           12.723598
##########                 desc_FPS_vdw_energy:          -26.485643
##########                  desc_FPS_es_energy:            0.480722
##########              desc_FPS_vdw+es_energy:          -26.004921
##########                  desc_FPS_num_hbond:                   1
##########                    desc_FPS_vdw_fps:           10.096309
##########                     desc_FPS_es_fps:            2.627289
##########                     desc_FPS_hb_fps:            1.000000
##########              desc_FPS_vdw_fp_numres:                 219
##########               desc_FPS_es_fp_numres:                 219
##########               desc_FPS_hb_fp_numres:                 219
##########                 Pharmacophore_Score:           20.000000
##########              desc_FMS_num_match_tot:                   0
##########              desc_FMS_max_match_ref:                  10
##########              desc_FMS_max_match_mol:                   6
##########                 desc_FMS_match_rate:            4.000000
##########                desc_FMS_match_resid:            0.000000
##########    desc_FMS_num_hydrophobic_matched:                   0
##########          desc_FMS_num_donor_matched:                   0
##########       desc_FMS_num_acceptor_matched:                   0
##########       desc_FMS_num_aromatic_matched:                   0
##########       desc_FMS_num_positive_matched:                   0
##########       desc_FMS_num_negative_matched:                   0
##########           desc_FMS_num_ring_matched:                   0
########## Hungarian_Matching_Similarity_Score:            9.321005
##########       desc_HMS_num_unmtchd_hvy_atms:                  13
##########           desc_HMS_num_ref_hvy_atms:                  23
##########        desc_HMS_rmsd_mtchd_hvy_atms:           11.494918
##########               Property_Volume_Score:            0.000000
##########               desc_VOS_geometric_vo:            0.000000
##########                desc_VOS_hvy_atom_vo:            0.000000
##########            desc_VOS_pos_chrg_atm_vo:            0.000000
##########            desc_VOS_neg_chrg_atm_vo:            0.000000
##########         desc_VOS_hydrophobic_atm_vo:            0.000000
##########         desc_VOS_hydrophilic_atm_vo:            0.000000
##########           Internal_energy_repulsive:            0.399909

@<TRIPOS>MOLECULE
101
 20 22 1 0 0
SMALL
GASTEIGER


@<TRIPOS>ATOM
      1 O          20.9242    7.8033   43.0743 O.2     1  UNL1       -0.2452
      2 C          21.5278    8.2927   42.1421 C.ar    1  UNL1        0.3372
      3 O          21.6055    7.6624   40.9439 O.2     1  UNL1       -0.4220
      4 C          22.2160    9.5905   42.2064 C.ar    1  UNL1        0.0236
      5 C          22.2871    8.1307   39.8370 C.ar    1  UNL1        0.1426
      6 C          22.8965   10.1507   41.0739 C.ar    1  UNL1       -0.0443
      7 C          22.9184    9.4266   39.8898 C.ar    1  UNL1        0.0184
      8 C          22.2908    7.3083   38.6542 C.ar    1  UNL1        0.0243
      9 C          23.5296    9.9276   38.7429 C.ar    1  UNL1       -0.0403
     10 C          22.7896    7.8985   37.4359 C.ar    1  UNL1        0.1383
     11 C          23.4883    9.1390   37.5394 C.ar    1  UNL1        0.0209
     12 O          23.3565    7.1585   36.4320 O.2     1  UNL1       -0.4628
     13 C          24.5136    9.1307   36.5487 C.ar    1  UNL1       -0.0161
     14 C          24.3577    7.9345   35.8881 C.ar    1  UNL1        0.0931
     15 H          22.1583   10.1014   43.1621 H       1  UNL1        0.0689
     16 H          23.3653   11.1294   41.1366 H       1  UNL1        0.0627
     17 H          21.9209    6.2889   38.5785 H       1  UNL1        0.0692
     18 H          24.0097   10.9031   38.7520 H       1  UNL1        0.0632
     19 H          25.3030    9.8637   36.4188 H       1  UNL1        0.0655
     20 H          24.9228    7.4585   35.0955 H       1  UNL1        0.1029
@<TRIPOS>BOND
     1     1     2    2
     2     2     3   ar
     3     2     4   ar
     4     3     5   ar
     5     4     6   ar
     6     5     7   ar
     7     5     8   ar
     8     7     9   ar
     9     8    10   ar
    10     9    11   ar
    11    10    12   ar
    12    11    13   ar
    13    12    14   ar
    14     6     7   ar
    15    10    11   ar
    16    13    14   ar
    17     4    15    1
    18     6    16    1
    19     8    17    1
    20     9    18    1
    21    13    19    1
    22    14    20    1
@<TRIPOS>SUBSTRUCTURE
     1 UNL1        1 TEMP              0 ****  ****    0 ROOT


##########                                Name:                 103
##########                DOCK_Rotatable_Bonds:                  10
##########                         Heavy_Atoms:                  31
##########                    Molecular_Weight:             434.399
##########                       Formal_Charge:         0.000499845
##########                     HBond_Acceptors:                  10
##########                        HBond_Donors:                   6
##########                    Descriptor_Score:           30.117014
##########          Footprint_Similarity_Score:            5.646254
##########                 desc_FPS_vdw_energy:          -36.133354
##########                  desc_FPS_es_energy:           -5.360394
##########              desc_FPS_vdw+es_energy:          -41.493748
##########                  desc_FPS_num_hbond:                   4
##########                    desc_FPS_vdw_fps:            3.967571
##########                     desc_FPS_es_fps:            1.678682
##########                     desc_FPS_hb_fps:            2.449490
##########              desc_FPS_vdw_fp_numres:                 219
##########               desc_FPS_es_fp_numres:                 219
##########               desc_FPS_hb_fp_numres:                 219
##########                 Pharmacophore_Score:           20.000000
##########              desc_FMS_num_match_tot:                   0
##########              desc_FMS_max_match_ref:                  10
##########              desc_FMS_max_match_mol:                  20
##########                 desc_FMS_match_rate:            4.000000
##########                desc_FMS_match_resid:            0.000000
##########    desc_FMS_num_hydrophobic_matched:                   0
##########          desc_FMS_num_donor_matched:                   0
##########       desc_FMS_num_acceptor_matched:                   0
##########       desc_FMS_num_aromatic_matched:                   0
##########       desc_FMS_num_positive_matched:                   0
##########       desc_FMS_num_negative_matched:                   0
##########           desc_FMS_num_ring_matched:                   0
########## Hungarian_Matching_Similarity_Score:            4.722429
##########       desc_HMS_num_unmtchd_hvy_atms:                  22
##########           desc_HMS_num_ref_hvy_atms:                  23
##########        desc_HMS_rmsd_mtchd_hvy_atms:            4.939820
##########               Property_Volume_Score:            0.251669
##########               desc_VOS_geometric_vo:            0.481464
##########                desc_VOS_hvy_atom_vo:            0.465955
##########            desc_VOS_pos_chrg_atm_vo:            0.164857
##########            desc_VOS_neg_chrg_atm_vo:            0.122710
##########         desc_VOS_hydrophobic_atm_vo:            0.155948
##########         desc_VOS_hydrophilic_atm_vo:            0.119083
##########           Internal_energy_repulsive:           15.494676

@<TRIPOS>MOLECULE
103
 53 56 1 0 0
SMALL
GASTEIGER


@<TRIPOS>ATOM
      1 O          18.5218   14.7853   45.1605 O.2     1  UNL1       -0.2917
      2 C          17.9535   14.6558   44.0925 C.2     1  UNL1        0.1740
      3 C          16.5880   14.0352   43.9449 C.ar    1  UNL1        0.1007
      4 C          18.6798   15.0184   42.8181 C.3     1  UNL1        0.0520
      5 C          16.0015   13.9928   42.6733 C.ar    1  UNL1        0.1389
      6 C          15.8931   13.4748   45.0286 C.ar    1  UNL1        0.1343
      7 C          17.7014   15.5089   41.7360 C.3     1  UNL1        0.1322
      8 O          16.6416   14.5348   41.5767 O.3     1  UNL1       -0.4828
      9 C          14.7660   13.3810   42.4789 C.ar    1  UNL1        0.0229
     10 O          16.4164   13.4820   46.2899 O.3     1  UNL1       -0.5058
     11 C          14.6605   12.8518   44.8262 C.ar    1  UNL1        0.0226
     12 C          18.4220   15.6822   40.4093 C.ar    1  UNL1       -0.0067
     13 C          14.0939   12.7967   43.5478 C.ar    1  UNL1        0.1310
     14 C          19.4207   14.7866   40.0171 C.ar    1  UNL1       -0.0516
     15 C          18.1313   16.7836   39.6032 C.ar    1  UNL1       -0.0516
     16 O          12.8864   12.1703   43.2822 O.3     1  UNL1       -0.4606
     17 C          20.1194   14.9873   38.8310 C.ar    1  UNL1       -0.0198
     18 C          18.8360   16.9901   38.4186 C.ar    1  UNL1       -0.0198
     19 C          12.1592   12.3390   42.0384 C.3     1  UNL1        0.2308
     20 C          19.8283   16.0926   38.0350 C.ar    1  UNL1        0.1169
     21 O          11.8103   13.7336   41.8271 O.3     1  UNL1       -0.3313
     22 C          10.8619   11.4989   42.0820 C.3     1  UNL1        0.1454
     23 O          20.5266   16.3022   36.8875 O.3     1  UNL1       -0.5068
     24 C          10.9806   14.3401   42.8553 C.3     1  UNL1        0.1140
     25 O          11.1708   10.1272   42.3644 O.3     1  UNL1       -0.3829
     26 C           9.8886   12.0613   43.1475 C.3     1  UNL1        0.1152
     27 C           9.6390   13.5736   42.9346 C.3     1  UNL1        0.1120
     28 C          10.7680   15.8318   42.5119 C.3     1  UNL1        0.0731
     29 O           8.6305   11.3939   43.0535 O.3     1  UNL1       -0.3864
     30 O           8.8891   13.7754   41.7284 O.3     1  UNL1       -0.3865
     31 O          11.9688   16.5660   42.7501 O.3     1  UNL1       -0.3924
     32 H          19.2086   14.1325   42.4578 H       1  UNL1        0.0385
     33 H          19.4224   15.7936   43.0213 H       1  UNL1        0.0385
     34 H          17.2502   16.4525   42.0591 H       1  UNL1        0.0789
     35 H          14.3291   13.3518   41.4835 H       1  UNL1        0.0691
     36 H          15.8521   12.9117   46.8604 H       1  UNL1        0.2922
     37 H          14.1587   12.4000   45.6776 H       1  UNL1        0.0691
     38 H          19.6698   13.9301   40.6404 H       1  UNL1        0.0623
     39 H          17.3686   17.4970   39.9042 H       1  UNL1        0.0623
     40 H          20.8968   14.2855   38.5377 H       1  UNL1        0.0654
     41 H          18.6155   17.8570   37.8001 H       1  UNL1        0.0654
     42 H          12.8030   12.0089   41.2079 H       1  UNL1        0.1084
     43 H          10.3879   11.5506   41.0979 H       1  UNL1        0.0683
     44 H          21.2007   15.6059   36.8013 H       1  UNL1        0.2921
     45 H          11.4958   14.2641   43.8177 H       1  UNL1        0.0647
     46 H          11.6940   10.0819   43.1874 H       1  UNL1        0.2102
     47 H          10.3135   11.9006   44.1424 H       1  UNL1        0.0648
     48 H           9.0566   13.9544   43.7785 H       1  UNL1        0.0647
     49 H           9.9635   16.2406   43.1295 H       1  UNL1        0.0584
     50 H          10.4899   15.9406   41.4599 H       1  UNL1        0.0584
     51 H           8.0174   11.9220   43.6016 H       1  UNL1        0.2100
     52 H           8.5737   14.6977   41.7324 H       1  UNL1        0.2100
     53 H          12.2013   16.4708   43.6883 H       1  UNL1        0.2095
@<TRIPOS>BOND
     1     1     2    2
     2     2     3    1
     3     2     4    1
     4     3     5   ar
     5     3     6   ar
     6     4     7    1
     7     5     8    1
     8     5     9   ar
     9     6    10    1
    10     6    11   ar
    11     7    12    1
    12     9    13   ar
    13    12    14   ar
    14    12    15   ar
    15    13    16    1
    16    14    17   ar
    17    15    18   ar
    18    16    19    1
    19    17    20   ar
    20    19    21    1
    21    19    22    1
    22    20    23    1
    23    21    24    1
    24    22    25    1
    25    22    26    1
    26    24    27    1
    27    24    28    1
    28    26    29    1
    29    27    30    1
    30    28    31    1
    31     7     8    1
    32    11    13   ar
    33    18    20   ar
    34    26    27    1
    35     4    32    1
    36     4    33    1
    37     7    34    1
    38     9    35    1
    39    10    36    1
    40    11    37    1
    41    14    38    1
    42    15    39    1
    43    17    40    1
    44    18    41    1
    45    19    42    1
    46    22    43    1
    47    23    44    1
    48    24    45    1
    49    25    46    1
    50    26    47    1
    51    27    48    1
    52    28    49    1
    53    28    50    1
    54    29    51    1
    55    30    52    1
    56    31    53    1
@<TRIPOS>SUBSTRUCTURE
     1 UNL1        1 TEMP              0 ****  ****    0 ROOT


##########                                Name:                 103
##########                DOCK_Rotatable_Bonds:                  10
##########                         Heavy_Atoms:                  31
##########                    Molecular_Weight:             434.399
##########                       Formal_Charge:         0.000499845
##########                     HBond_Acceptors:                  10
##########                        HBond_Donors:                   6
##########                    Descriptor_Score:           30.502752
##########          Footprint_Similarity_Score:            5.943799
##########                 desc_FPS_vdw_energy:          -37.647419
##########                  desc_FPS_es_energy:           -4.460317
##########              desc_FPS_vdw+es_energy:          -42.107735
##########                  desc_FPS_num_hbond:                   4
##########                    desc_FPS_vdw_fps:            4.427650
##########                     desc_FPS_es_fps:            1.516150
##########                     desc_FPS_hb_fps:            2.449490
##########              desc_FPS_vdw_fp_numres:                 219
##########               desc_FPS_es_fp_numres:                 219
##########               desc_FPS_hb_fp_numres:                 219
##########                 Pharmacophore_Score:           20.000000
##########              desc_FMS_num_match_tot:                   0
##########              desc_FMS_max_match_ref:                  10
##########              desc_FMS_max_match_mol:                  20
##########                 desc_FMS_match_rate:            4.000000
##########                desc_FMS_match_resid:            0.000000
##########    desc_FMS_num_hydrophobic_matched:                   0
##########          desc_FMS_num_donor_matched:                   0
##########       desc_FMS_num_acceptor_matched:                   0
##########       desc_FMS_num_aromatic_matched:                   0
##########       desc_FMS_num_positive_matched:                   0
##########       desc_FMS_num_negative_matched:                   0
##########           desc_FMS_num_ring_matched:                   0
########## Hungarian_Matching_Similarity_Score:            4.813455
##########       desc_HMS_num_unmtchd_hvy_atms:                  22
##########           desc_HMS_num_ref_hvy_atms:                  23
##########        desc_HMS_rmsd_mtchd_hvy_atms:            5.030846
##########               Property_Volume_Score:            0.254503
##########               desc_VOS_geometric_vo:            0.493885
##########                desc_VOS_hvy_atom_vo:            0.472517
##########            desc_VOS_pos_chrg_atm_vo:            0.165351
##########            desc_VOS_neg_chrg_atm_vo:            0.128141
##########         desc_VOS_hydrophobic_atm_vo:            0.151956
##########         desc_VOS_hydrophilic_atm_vo:            0.115170
##########           Internal_energy_repulsive:           17.297613

@<TRIPOS>MOLECULE
103
 53 56 1 0 0
SMALL
GASTEIGER


@<TRIPOS>ATOM
      1 O          18.5951   14.8109   45.2760 O.2     1  UNL1       -0.2917
      2 C          18.0809   14.6298   44.1882 C.2     1  UNL1        0.1740
      3 C          16.7077   14.0368   44.0038 C.ar    1  UNL1        0.1007
      4 C          18.8843   14.8935   42.9359 C.3     1  UNL1        0.0520
      5 C          16.1887   13.9304   42.7069 C.ar    1  UNL1        0.1389
      6 C          15.9400   13.5631   45.0798 C.ar    1  UNL1        0.1343
      7 C          17.9796   15.3408   41.7740 C.3     1  UNL1        0.1322
      8 O          16.9018   14.3864   41.6161 O.3     1  UNL1       -0.4828
      9 C          14.9480   13.3399   42.4824 C.ar    1  UNL1        0.0229
     10 O          16.3954   13.6353   46.3652 O.3     1  UNL1       -0.5058
     11 C          14.7023   12.9607   44.8483 C.ar    1  UNL1        0.0226
     12 C          18.7745   15.4124   40.4807 C.ar    1  UNL1       -0.0067
     13 C          14.2032   12.8408   43.5464 C.ar    1  UNL1        0.1310
     14 C          19.8656   14.5659   40.2657 C.ar    1  UNL1       -0.0516
     15 C          18.4543   16.3773   39.5248 C.ar    1  UNL1       -0.0516
     16 O          12.9938   12.2305   43.2535 O.3     1  UNL1       -0.4606
     17 C          20.6268   14.6800   39.1069 C.ar    1  UNL1       -0.0198
     18 C          19.2209   16.4978   38.3670 C.ar    1  UNL1       -0.0198
     19 C          12.2518   12.4801   42.0322 C.3     1  UNL1        0.2308
     20 C          20.3052   15.6500   38.1604 C.ar    1  UNL1        0.1169
     21 O          11.9349   13.8918   41.8977 O.3     1  UNL1       -0.3313
     22 C          10.9346   11.6707   42.0550 C.3     1  UNL1        0.1454
     23 O          21.0627   15.7775   37.0386 O.3     1  UNL1       -0.5068
     24 C          11.1368   14.4651   42.9691 C.3     1  UNL1        0.1140
     25 O          11.2131   10.2793   42.2624 O.3     1  UNL1       -0.3829
     26 C           9.9924   12.2017   43.1638 C.3     1  UNL1        0.1152
     27 C           9.7778   13.7285   43.0320 C.3     1  UNL1        0.1120
     28 C          10.9566   15.9771   42.7052 C.3     1  UNL1        0.0731
     29 O           8.7166   11.5708   43.0573 O.3     1  UNL1       -0.3864
     30 O           9.0144   14.0098   41.8503 O.3     1  UNL1       -0.3865
     31 O          12.2013   16.6558   42.8713 O.3     1  UNL1       -0.3924
     32 H          19.4054   13.9735   42.6597 H       1  UNL1        0.0385
     33 H          19.6373   15.6604   43.1321 H       1  UNL1        0.0385
     34 H          17.5395   16.3140   42.0138 H       1  UNL1        0.0789
     35 H          14.5639   13.2600   41.4682 H       1  UNL1        0.0691
     36 H          15.7298   13.2089   46.9519 H       1  UNL1        0.2922
     37 H          14.1429   12.5760   45.6967 H       1  UNL1        0.0691
     38 H          20.1378   13.8172   41.0069 H       1  UNL1        0.0623
     39 H          17.6186   17.0530   39.6866 H       1  UNL1        0.0623
     40 H          21.4757   14.0180   38.9520 H       1  UNL1        0.0654
     41 H          18.9760   17.2599   37.6309 H       1  UNL1        0.0654
     42 H          12.8741   12.1773   41.1753 H       1  UNL1        0.1084
     43 H          10.4467   11.7842   41.0829 H       1  UNL1        0.0683
     44 H          21.7895   15.1317   37.0782 H       1  UNL1        0.2921
     45 H          11.6649   14.3275   43.9175 H       1  UNL1        0.0647
     46 H          11.5542   10.1549   43.1687 H       1  UNL1        0.2102
     47 H          10.4286   11.9801   44.1421 H       1  UNL1        0.0648
     48 H           9.2183   14.0798   43.9038 H       1  UNL1        0.0647
     49 H          10.2226   16.3877   43.4041 H       1  UNL1        0.0584
     50 H          10.5975   16.1417   41.6855 H       1  UNL1        0.0584
     51 H           8.1242   12.0885   43.6373 H       1  UNL1        0.2100
     52 H           8.6207   14.8945   41.9617 H       1  UNL1        0.2100
     53 H          12.7905   16.3905   42.1461 H       1  UNL1        0.2095
@<TRIPOS>BOND
     1     1     2    2
     2     2     3    1
     3     2     4    1
     4     3     5   ar
     5     3     6   ar
     6     4     7    1
     7     5     8    1
     8     5     9   ar
     9     6    10    1
    10     6    11   ar
    11     7    12    1
    12     9    13   ar
    13    12    14   ar
    14    12    15   ar
    15    13    16    1
    16    14    17   ar
    17    15    18   ar
    18    16    19    1
    19    17    20   ar
    20    19    21    1
    21    19    22    1
    22    20    23    1
    23    21    24    1
    24    22    25    1
    25    22    26    1
    26    24    27    1
    27    24    28    1
    28    26    29    1
    29    27    30    1
    30    28    31    1
    31     7     8    1
    32    11    13   ar
    33    18    20   ar
    34    26    27    1
    35     4    32    1
    36     4    33    1
    37     7    34    1
    38     9    35    1
    39    10    36    1
    40    11    37    1
    41    14    38    1
    42    15    39    1
    43    17    40    1
    44    18    41    1
    45    19    42    1
    46    22    43    1
    47    23    44    1
    48    24    45    1
    49    25    46    1
    50    26    47    1
    51    27    48    1
    52    28    49    1
    53    28    50    1
    54    29    51    1
    55    30    52    1
    56    31    53    1
@<TRIPOS>SUBSTRUCTURE
     1 UNL1        1 TEMP              0 ****  ****    0 ROOT


##########                                Name:                 103
##########                DOCK_Rotatable_Bonds:                  10
##########                         Heavy_Atoms:                  31
##########                    Molecular_Weight:             434.399
##########                       Formal_Charge:         0.000499845
##########                     HBond_Acceptors:                  10
##########                        HBond_Donors:                   6
##########                    Descriptor_Score:           18.872442
##########          Footprint_Similarity_Score:            7.025110
##########                 desc_FPS_vdw_energy:          -35.715038
##########                  desc_FPS_es_energy:           -2.531287
##########              desc_FPS_vdw+es_energy:          -38.246326
##########                  desc_FPS_num_hbond:                   1
##########                    desc_FPS_vdw_fps:            5.702972
##########                     desc_FPS_es_fps:            1.322138
##########                     desc_FPS_hb_fps:            1.000000
##########              desc_FPS_vdw_fp_numres:                 219
##########               desc_FPS_es_fp_numres:                 219
##########               desc_FPS_hb_fp_numres:                 219
##########                 Pharmacophore_Score:            6.029670
##########              desc_FMS_num_match_tot:                   1
##########              desc_FMS_max_match_ref:                  10
##########              desc_FMS_max_match_mol:                  20
##########                 desc_FMS_match_rate:            0.900000
##########                desc_FMS_match_resid:            1.529670
##########    desc_FMS_num_hydrophobic_matched:                   0
##########          desc_FMS_num_donor_matched:                   1
##########       desc_FMS_num_acceptor_matched:                   0
##########       desc_FMS_num_aromatic_matched:                   0
##########       desc_FMS_num_positive_matched:                   0
##########       desc_FMS_num_negative_matched:                   0
##########           desc_FMS_num_ring_matched:                   0
########## Hungarian_Matching_Similarity_Score:            6.001034
##########       desc_HMS_num_unmtchd_hvy_atms:                  22
##########           desc_HMS_num_ref_hvy_atms:                  23
##########        desc_HMS_rmsd_mtchd_hvy_atms:            6.218425
##########               Property_Volume_Score:            0.183370
##########               desc_VOS_geometric_vo:            0.370942
##########                desc_VOS_hvy_atom_vo:            0.348315
##########            desc_VOS_pos_chrg_atm_vo:            0.127665
##########            desc_VOS_neg_chrg_atm_vo:            0.154016
##########         desc_VOS_hydrophobic_atm_vo:            0.034128
##########         desc_VOS_hydrophilic_atm_vo:            0.065152
##########           Internal_energy_repulsive:            8.516261

@<TRIPOS>MOLECULE
103
 53 56 1 0 0
SMALL
GASTEIGER


@<TRIPOS>ATOM
      1 O           5.3046    9.5859   43.9257 O.2     1  UNL1       -0.2917
      2 C           5.4169   10.7866   44.0873 C.2     1  UNL1        0.1740
      3 C           6.7056   11.5391   43.8761 C.ar    1  UNL1        0.1007
      4 C           4.2513   11.5716   44.6425 C.3     1  UNL1        0.0520
      5 C           6.7055   12.9315   44.0314 C.ar    1  UNL1        0.1389
      6 C           7.9113   10.8950   43.5555 C.ar    1  UNL1        0.1343
      7 C           4.2452   13.0162   44.1116 C.3     1  UNL1        0.1322
      8 O           5.5450   13.6123   44.3409 O.3     1  UNL1       -0.4828
      9 C           7.8830   13.6628   43.8999 C.ar    1  UNL1        0.0229
     10 O           7.9739    9.5401   43.3966 O.3     1  UNL1       -0.5058
     11 C           9.0912   11.6312   43.4370 C.ar    1  UNL1        0.0226
     12 C           3.1868   13.8392   44.8271 C.ar    1  UNL1       -0.0067
     13 C           9.0832   13.0193   43.6152 C.ar    1  UNL1        0.1310
     14 C           3.3701   14.2400   46.1533 C.ar    1  UNL1       -0.0516
     15 C           1.9901   14.1426   44.1764 C.ar    1  UNL1       -0.0516
     16 O          10.2265   13.7985   43.5347 O.3     1  UNL1       -0.4606
     17 C           2.3700   14.9391   46.8216 C.ar    1  UNL1       -0.0198
     18 C           0.9843   14.8361   44.8474 C.ar    1  UNL1       -0.0198
     19 C          11.2072   13.6653   42.4740 C.3     1  UNL1        0.2308
     20 C           1.1756   15.2324   46.1678 C.ar    1  UNL1        0.1169
     21 O          12.1273   12.5758   42.7528 O.3     1  UNL1       -0.3313
     22 C          12.0109   14.9801   42.3473 C.3     1  UNL1        0.1454
     23 O           0.1887   15.8951   46.8276 O.3     1  UNL1       -0.5068
     24 C          12.8908   12.6931   43.9844 C.3     1  UNL1        0.1140
     25 O          11.1205   16.0861   42.1462 O.3     1  UNL1       -0.3829
     26 C          12.8762   15.2092   43.6113 C.3     1  UNL1        0.1152
     27 C          13.7560   13.9739   43.9186 C.3     1  UNL1        0.1120
     28 C          13.7573   11.4253   44.1590 C.3     1  UNL1        0.0731
     29 O          13.7445   16.3235   43.4074 O.3     1  UNL1       -0.3864
     30 O          14.7623   13.8322   42.9060 O.3     1  UNL1       -0.3865
     31 O          12.9764   10.2583   43.9020 O.3     1  UNL1       -0.3924
     32 H           4.3305   11.5834   45.7323 H       1  UNL1        0.0385
     33 H           3.3123   11.0789   44.3790 H       1  UNL1        0.0385
     34 H           4.0629   13.0028   43.0323 H       1  UNL1        0.0789
     35 H           7.8651   14.7423   44.0304 H       1  UNL1        0.0691
     36 H           7.0539    9.1925   43.3537 H       1  UNL1        0.2922
     37 H          10.0153   11.1033   43.2178 H       1  UNL1        0.0691
     38 H           4.2914   13.9998   46.6802 H       1  UNL1        0.0623
     39 H           1.8276   13.8227   43.1506 H       1  UNL1        0.0623
     40 H           2.5227   15.2429   47.8547 H       1  UNL1        0.0654
     41 H           0.0481   15.0587   44.3409 H       1  UNL1        0.0654
     42 H          10.6787   13.4458   41.5329 H       1  UNL1        0.1084
     43 H          12.6637   14.8989   41.4736 H       1  UNL1        0.0683
     44 H           0.4469   15.9898   47.7609 H       1  UNL1        0.2921
     45 H          12.1962   12.7709   44.8263 H       1  UNL1        0.0647
     46 H          10.6664   16.2858   42.9871 H       1  UNL1        0.2102
     47 H          12.2207   15.4086   44.4639 H       1  UNL1        0.0648
     48 H          14.2477   14.1257   44.8839 H       1  UNL1        0.0647
     49 H          14.1475   11.3840   45.1797 H       1  UNL1        0.0584
     50 H          14.6008   11.4465   43.4634 H       1  UNL1        0.0584
     51 H          14.2227   16.4353   44.2526 H       1  UNL1        0.2100
     52 H          15.4162   13.1877   43.2332 H       1  UNL1        0.2100
     53 H          13.5599    9.4840   43.9611 H       1  UNL1        0.2095
@<TRIPOS>BOND
     1     1     2    2
     2     2     3    1
     3     2     4    1
     4     3     5   ar
     5     3     6   ar
     6     4     7    1
     7     5     8    1
     8     5     9   ar
     9     6    10    1
    10     6    11   ar
    11     7    12    1
    12     9    13   ar
    13    12    14   ar
    14    12    15   ar
    15    13    16    1
    16    14    17   ar
    17    15    18   ar
    18    16    19    1
    19    17    20   ar
    20    19    21    1
    21    19    22    1
    22    20    23    1
    23    21    24    1
    24    22    25    1
    25    22    26    1
    26    24    27    1
    27    24    28    1
    28    26    29    1
    29    27    30    1
    30    28    31    1
    31     7     8    1
    32    11    13   ar
    33    18    20   ar
    34    26    27    1
    35     4    32    1
    36     4    33    1
    37     7    34    1
    38     9    35    1
    39    10    36    1
    40    11    37    1
    41    14    38    1
    42    15    39    1
    43    17    40    1
    44    18    41    1
    45    19    42    1
    46    22    43    1
    47    23    44    1
    48    24    45    1
    49    25    46    1
    50    26    47    1
    51    27    48    1
    52    28    49    1
    53    28    50    1
    54    29    51    1
    55    30    52    1
    56    31    53    1
@<TRIPOS>SUBSTRUCTURE
     1 UNL1        1 TEMP              0 ****  ****    0 ROOT


##########                                Name:                 104
##########                DOCK_Rotatable_Bonds:                   0
##########                         Heavy_Atoms:                  18
##########                    Molecular_Weight:             246.306
##########                       Formal_Charge:         0.000299916
##########                     HBond_Acceptors:                   3
##########                        HBond_Donors:                   0
##########                    Descriptor_Score:           45.073971
##########          Footprint_Similarity_Score:           12.013711
##########                 desc_FPS_vdw_energy:          -24.376345
##########                  desc_FPS_es_energy:            0.086337
##########              desc_FPS_vdw+es_energy:          -24.290009
##########                  desc_FPS_num_hbond:                   0
##########                    desc_FPS_vdw_fps:            9.994717
##########                     desc_FPS_es_fps:            2.018994
##########                     desc_FPS_hb_fps:            0.000000
##########              desc_FPS_vdw_fp_numres:                 219
##########               desc_FPS_es_fp_numres:                 219
##########               desc_FPS_hb_fp_numres:                 219
##########                 Pharmacophore_Score:           20.000000
##########              desc_FMS_num_match_tot:                   0
##########              desc_FMS_max_match_ref:                  10
##########              desc_FMS_max_match_mol:                   9
##########                 desc_FMS_match_rate:            4.000000
##########                desc_FMS_match_resid:            0.000000
##########    desc_FMS_num_hydrophobic_matched:                   0
##########          desc_FMS_num_donor_matched:                   0
##########       desc_FMS_num_acceptor_matched:                   0
##########       desc_FMS_num_aromatic_matched:                   0
##########       desc_FMS_num_positive_matched:                   0
##########       desc_FMS_num_negative_matched:                   0
##########           desc_FMS_num_ring_matched:                   0
########## Hungarian_Matching_Similarity_Score:           13.060262
##########       desc_HMS_num_unmtchd_hvy_atms:                  29
##########           desc_HMS_num_ref_hvy_atms:                  23
##########        desc_HMS_rmsd_mtchd_hvy_atms:           11.755914
##########               Property_Volume_Score:            0.000000
##########               desc_VOS_geometric_vo:            0.000000
##########                desc_VOS_hvy_atom_vo:            0.000000
##########            desc_VOS_pos_chrg_atm_vo:            0.000000
##########            desc_VOS_neg_chrg_atm_vo:            0.000000
##########         desc_VOS_hydrophobic_atm_vo:            0.000000
##########         desc_VOS_hydrophilic_atm_vo:            0.000000
##########           Internal_energy_repulsive:           10.378305

@<TRIPOS>MOLECULE
104
 36 38 1 0 0
SMALL
GASTEIGER


@<TRIPOS>ATOM
      1 O          23.8380   11.2923   34.5221 O.2     1  UNL1       -0.2876
      2 C          23.6933   10.4260   35.3626 C.2     1  UNL1        0.1817
      3 C          24.3060   10.4971   36.6414 C.2     1  UNL1       -0.0003
      4 C          22.5477    9.6101   35.3368 C.2     1  UNL1       -0.0178
      5 C          23.9925    9.5401   37.5448 C.2     1  UNL1       -0.0131
      6 C          25.1939   11.7073   36.9106 C.3     1  UNL1       -0.0360
      7 C          22.4231    8.6736   36.2762 C.2     1  UNL1       -0.0704
      8 C          23.5190    8.3245   37.0466 C.3     1  UNL1        0.0114
      9 C          24.3233    9.6902   39.0383 C.3     1  UNL1        0.1291
     10 C          23.2706    7.2111   38.0767 C.3     1  UNL1       -0.0399
     11 C          24.5530    7.4668   36.3039 C.3     1  UNL1       -0.0522
     12 O          24.0852   11.0482   39.4892 O.3     1  UNL1       -0.4564
     13 C          23.4641    8.8259   40.0028 C.3     1  UNL1        0.0128
     14 C          22.5510    7.7951   39.2981 C.3     1  UNL1       -0.0447
     15 C          23.2587   11.1591   40.5417 C.2     1  UNL1        0.3109
     16 C          22.6413    9.8227   40.8443 C.3     1  UNL1        0.0601
     17 O          22.9101   12.2138   41.0309 O.2     1  UNL1       -0.2505
     18 C          22.6694    9.4966   42.3516 C.3     1  UNL1       -0.0519
     19 H          21.7517    9.7850   34.6167 H       1  UNL1        0.0653
     20 H          24.5913   12.6105   37.0288 H       1  UNL1        0.0279
     21 H          25.8835   11.8669   36.0784 H       1  UNL1        0.0279
     22 H          25.8147   11.5846   37.7991 H       1  UNL1        0.0279
     23 H          21.5212    8.0662   36.3024 H       1  UNL1        0.0582
     24 H          25.3812    9.4619   39.1969 H       1  UNL1        0.0785
     25 H          24.1736    6.7263   38.4694 H       1  UNL1        0.0277
     26 H          22.6370    6.4197   37.6631 H       1  UNL1        0.0277
     27 H          25.4839    7.3402   36.8661 H       1  UNL1        0.0241
     28 H          24.8501    7.9526   35.3716 H       1  UNL1        0.0241
     29 H          24.1839    6.4805   36.0001 H       1  UNL1        0.0241
     30 H          24.1616    8.2859   40.6491 H       1  UNL1        0.0348
     31 H          22.2882    6.9978   39.9978 H       1  UNL1        0.0270
     32 H          21.6181    8.2575   38.9665 H       1  UNL1        0.0270
     33 H          21.6040    9.8575   40.5020 H       1  UNL1        0.0415
     34 H          23.6899    9.5363   42.7395 H       1  UNL1        0.0238
     35 H          22.2648    8.4985   42.5344 H       1  UNL1        0.0238
     36 H          22.0632   10.2168   42.9063 H       1  UNL1        0.0238
@<TRIPOS>BOND
     1     1     2    2
     2     2     3    1
     3     2     4    1
     4     3     5    2
     5     3     6    1
     6     4     7    2
     7     5     8    1
     8     5     9    1
     9     8    10    1
    10     8    11    1
    11     9    12    1
    12     9    13    1
    13    10    14    1
    14    12    15    1
    15    13    16    1
    16    15    17    2
    17    16    18    1
    18     7     8    1
    19    13    14    1
    20    15    16    1
    21     4    19    1
    22     6    20    1
    23     6    21    1
    24     6    22    1
    25     7    23    1
    26     9    24    1
    27    10    25    1
    28    10    26    1
    29    11    27    1
    30    11    28    1
    31    11    29    1
    32    13    30    1
    33    14    31    1
    34    14    32    1
    35    16    33    1
    36    18    34    1
    37    18    35    1
    38    18    36    1
@<TRIPOS>SUBSTRUCTURE
     1 UNL1        1 TEMP              0 ****  ****    0 ROOT


##########                                Name:                 104
##########                DOCK_Rotatable_Bonds:                   0
##########                         Heavy_Atoms:                  18
##########                    Molecular_Weight:             246.306
##########                       Formal_Charge:         0.000299916
##########                     HBond_Acceptors:                   3
##########                        HBond_Donors:                   0
##########                    Descriptor_Score:           17.190851
##########          Footprint_Similarity_Score:            6.979308
##########                 desc_FPS_vdw_energy:          -22.029402
##########                  desc_FPS_es_energy:           -1.719825
##########              desc_FPS_vdw+es_energy:          -23.749228
##########                  desc_FPS_num_hbond:                   0
##########                    desc_FPS_vdw_fps:            5.716826
##########                     desc_FPS_es_fps:            1.262482
##########                     desc_FPS_hb_fps:            0.000000
##########              desc_FPS_vdw_fp_numres:                 219
##########               desc_FPS_es_fp_numres:                 219
##########               desc_FPS_hb_fp_numres:                 219
##########                 Pharmacophore_Score:            5.705105
##########              desc_FMS_num_match_tot:                   1
##########              desc_FMS_max_match_ref:                  10
##########              desc_FMS_max_match_mol:                   9
##########                 desc_FMS_match_rate:            0.900000
##########                desc_FMS_match_resid:            1.205105
##########    desc_FMS_num_hydrophobic_matched:                   0
##########          desc_FMS_num_donor_matched:                   0
##########       desc_FMS_num_acceptor_matched:                   1
##########       desc_FMS_num_aromatic_matched:                   0
##########       desc_FMS_num_positive_matched:                   0
##########       desc_FMS_num_negative_matched:                   0
##########           desc_FMS_num_ring_matched:                   0
########## Hungarian_Matching_Similarity_Score:            4.806775
##########       desc_HMS_num_unmtchd_hvy_atms:                  29
##########           desc_HMS_num_ref_hvy_atms:                  23
##########        desc_HMS_rmsd_mtchd_hvy_atms:            3.502427
##########               Property_Volume_Score:            0.300337
##########               desc_VOS_geometric_vo:            0.414153
##########                desc_VOS_hvy_atom_vo:            0.311182
##########            desc_VOS_pos_chrg_atm_vo:            0.235803
##########            desc_VOS_neg_chrg_atm_vo:            0.177569
##########         desc_VOS_hydrophobic_atm_vo:            0.242390
##########         desc_VOS_hydrophilic_atm_vo:            0.420926
##########           Internal_energy_repulsive:           10.378535

@<TRIPOS>MOLECULE
104
 36 38 1 0 0
SMALL
GASTEIGER


@<TRIPOS>ATOM
      1 O           5.2715   12.0709   41.1814 O.2     1  UNL1       -0.2876
      2 C           6.2050   12.7912   41.4776 C.2     1  UNL1        0.1817
      3 C           7.0978   12.4819   42.5373 C.2     1  UNL1       -0.0003
      4 C           6.7606   13.6497   40.5117 C.2     1  UNL1       -0.0178
      5 C           8.1693   13.2885   42.7147 C.2     1  UNL1       -0.0131
      6 C           6.8146   11.2058   43.3228 C.3     1  UNL1       -0.0360
      7 C           7.7845   14.4217   40.8733 C.2     1  UNL1       -0.0704
      8 C           8.0766   14.5896   42.2160 C.3     1  UNL1        0.0114
      9 C           9.3610   12.8781   43.5944 C.3     1  UNL1        0.1291
     10 C           9.2566   15.5263   42.5199 C.3     1  UNL1       -0.0399
     11 C           7.0971   15.5123   42.9547 C.3     1  UNL1       -0.0522
     12 O           9.6838   11.4759   43.4107 O.3     1  UNL1       -0.4564
     13 C          10.6991   13.6073   43.2891 C.3     1  UNL1        0.0128
     14 C          10.5756   14.7799   42.2878 C.3     1  UNL1       -0.0447
     15 C          10.9575   11.2283   43.0650 C.2     1  UNL1        0.3109
     16 C          11.6624   12.5218   42.7671 C.3     1  UNL1        0.0601
     17 O          11.4008   10.1234   42.8285 O.2     1  UNL1       -0.2505
     18 C          13.0543   12.5916   43.4280 C.3     1  UNL1       -0.0519
     19 H           6.4141   13.6320   39.4810 H       1  UNL1        0.0653
     20 H           7.0477   10.3230   42.7235 H       1  UNL1        0.0279
     21 H           5.7597   11.1564   43.6024 H       1  UNL1        0.0279
     22 H           7.3780   11.1518   44.2553 H       1  UNL1        0.0279
     23 H           8.2592   15.0556   40.1276 H       1  UNL1        0.0582
     24 H           9.1006   13.0300   44.6459 H       1  UNL1        0.0785
     25 H           9.3053   15.8990   43.5511 H       1  UNL1        0.0277
     26 H           9.2492   16.4026   41.8634 H       1  UNL1        0.0277
     27 H           7.2394   15.5026   44.0401 H       1  UNL1        0.0241
     28 H           6.0692   15.1754   42.8016 H       1  UNL1        0.0241
     29 H           7.1063   16.5506   42.6038 H       1  UNL1        0.0241
     30 H          11.0682   14.0012   44.2400 H       1  UNL1        0.0348
     31 H          11.4213   15.4608   42.4131 H       1  UNL1        0.0270
     32 H          10.5973   14.4205   41.2561 H       1  UNL1        0.0270
     33 H          11.7745   12.5900   41.6822 H       1  UNL1        0.0415
     34 H          12.9804   12.4431   44.5079 H       1  UNL1        0.0238
     35 H          13.5186   13.5623   43.2400 H       1  UNL1        0.0238
     36 H          13.7071   11.8167   43.0191 H       1  UNL1        0.0238
@<TRIPOS>BOND
     1     1     2    2
     2     2     3    1
     3     2     4    1
     4     3     5    2
     5     3     6    1
     6     4     7    2
     7     5     8    1
     8     5     9    1
     9     8    10    1
    10     8    11    1
    11     9    12    1
    12     9    13    1
    13    10    14    1
    14    12    15    1
    15    13    16    1
    16    15    17    2
    17    16    18    1
    18     7     8    1
    19    13    14    1
    20    15    16    1
    21     4    19    1
    22     6    20    1
    23     6    21    1
    24     6    22    1
    25     7    23    1
    26     9    24    1
    27    10    25    1
    28    10    26    1
    29    11    27    1
    30    11    28    1
    31    11    29    1
    32    13    30    1
    33    14    31    1
    34    14    32    1
    35    16    33    1
    36    18    34    1
    37    18    35    1
    38    18    36    1
@<TRIPOS>SUBSTRUCTURE
     1 UNL1        1 TEMP              0 ****  ****    0 ROOT


##########                                Name:                 104
##########                DOCK_Rotatable_Bonds:                   0
##########                         Heavy_Atoms:                  18
##########                    Molecular_Weight:             246.306
##########                       Formal_Charge:         0.000299916
##########                     HBond_Acceptors:                   3
##########                        HBond_Donors:                   0
##########                    Descriptor_Score:           39.842896
##########          Footprint_Similarity_Score:           11.289381
##########                 desc_FPS_vdw_energy:          -24.671103
##########                  desc_FPS_es_energy:           -0.573282
##########              desc_FPS_vdw+es_energy:          -25.244385
##########                  desc_FPS_num_hbond:                   2
##########                    desc_FPS_vdw_fps:            9.234520
##########                     desc_FPS_es_fps:            2.054860
##########                     desc_FPS_hb_fps:            1.414214
##########              desc_FPS_vdw_fp_numres:                 219
##########               desc_FPS_es_fp_numres:                 219
##########               desc_FPS_hb_fp_numres:                 219
##########                 Pharmacophore_Score:           20.000000
##########              desc_FMS_num_match_tot:                   0
##########              desc_FMS_max_match_ref:                  10
##########              desc_FMS_max_match_mol:                   9
##########                 desc_FMS_match_rate:            4.000000
##########                desc_FMS_match_resid:            0.000000
##########    desc_FMS_num_hydrophobic_matched:                   0
##########          desc_FMS_num_donor_matched:                   0
##########       desc_FMS_num_acceptor_matched:                   0
##########       desc_FMS_num_aromatic_matched:                   0
##########       desc_FMS_num_positive_matched:                   0
##########       desc_FMS_num_negative_matched:                   0
##########           desc_FMS_num_ring_matched:                   0
########## Hungarian_Matching_Similarity_Score:            8.560544
##########       desc_HMS_num_unmtchd_hvy_atms:                  29
##########           desc_HMS_num_ref_hvy_atms:                  23
##########        desc_HMS_rmsd_mtchd_hvy_atms:            7.256196
##########               Property_Volume_Score:            0.007030
##########               desc_VOS_geometric_vo:            0.015130
##########                desc_VOS_hvy_atom_vo:            0.003600
##########            desc_VOS_pos_chrg_atm_vo:            0.015324
##########            desc_VOS_neg_chrg_atm_vo:            0.003921
##########         desc_VOS_hydrophobic_atm_vo:            0.004202
##########         desc_VOS_hydrophilic_atm_vo:            0.000000
##########           Internal_energy_repulsive:           10.378973

@<TRIPOS>MOLECULE
104
 36 38 1 0 0
SMALL
GASTEIGER


@<TRIPOS>ATOM
      1 O           6.8707   10.2552   43.0480 O.2     1  UNL1       -0.2876
      2 C           6.1464   11.1646   43.4035 C.2     1  UNL1        0.1817
      3 C           6.0043   12.3614   42.6529 C.2     1  UNL1       -0.0003
      4 C           5.0501   10.8986   44.2437 C.2     1  UNL1       -0.0178
      5 C           5.0895   13.2647   43.0740 C.2     1  UNL1       -0.0131
      6 C           6.8354   12.4755   41.3794 C.3     1  UNL1       -0.0360
      7 C           4.2776   11.9207   44.6094 C.2     1  UNL1       -0.0704
      8 C           4.7213   13.2183   44.4203 C.3     1  UNL1        0.0114
      9 C           4.6162   14.4219   42.1799 C.3     1  UNL1        0.1291
     10 C           3.7647   14.3179   44.9080 C.3     1  UNL1       -0.0399
     11 C           5.8034   13.6566   45.4169 C.3     1  UNL1       -0.0522
     12 O           4.4443   13.9819   40.8084 O.3     1  UNL1       -0.4564
     13 C           3.2334   15.0281   42.5483 C.3     1  UNL1        0.0128
     14 C           2.6424   14.5123   43.8816 C.3     1  UNL1       -0.0447
     15 C           3.2302   14.2180   40.2856 C.2     1  UNL1        0.3109
     16 C           2.3023   14.7098   41.3607 C.3     1  UNL1        0.0601
     17 O           2.8881   13.8845   39.1698 O.2     1  UNL1       -0.2505
     18 C           1.4785   15.9314   40.9043 C.3     1  UNL1       -0.0519
     19 H           4.7962    9.8801   44.5276 H       1  UNL1        0.0653
     20 H           6.4459   11.8137   40.6028 H       1  UNL1        0.0279
     21 H           7.8729   12.1946   41.5748 H       1  UNL1        0.0279
     22 H           6.8659   13.4927   40.9865 H       1  UNL1        0.0279
     23 H           3.3969   11.7279   45.2179 H       1  UNL1        0.0582
     24 H           5.3700   15.2145   42.1887 H       1  UNL1        0.0785
     25 H           4.2184   15.3084   45.0412 H       1  UNL1        0.0277
     26 H           3.3008   14.0480   45.8624 H       1  UNL1        0.0277
     27 H           6.2610   14.6158   45.1539 H       1  UNL1        0.0241
     28 H           6.6292   12.9413   45.4199 H       1  UNL1        0.0241
     29 H           5.4650   13.6975   46.4586 H       1  UNL1        0.0241
     30 H           3.3736   16.1098   42.6271 H       1  UNL1        0.0348
     31 H           1.9065   15.2270   44.2585 H       1  UNL1        0.0270
     32 H           2.1277   13.5587   43.7413 H       1  UNL1        0.0270
     33 H           1.6241   13.8890   41.6070 H       1  UNL1        0.0415
     34 H           2.1333   16.7407   40.5730 H       1  UNL1        0.0238
     35 H           0.8551   16.2993   41.7224 H       1  UNL1        0.0238
     36 H           0.8238   15.6578   40.0735 H       1  UNL1        0.0238
@<TRIPOS>BOND
     1     1     2    2
     2     2     3    1
     3     2     4    1
     4     3     5    2
     5     3     6    1
     6     4     7    2
     7     5     8    1
     8     5     9    1
     9     8    10    1
    10     8    11    1
    11     9    12    1
    12     9    13    1
    13    10    14    1
    14    12    15    1
    15    13    16    1
    16    15    17    2
    17    16    18    1
    18     7     8    1
    19    13    14    1
    20    15    16    1
    21     4    19    1
    22     6    20    1
    23     6    21    1
    24     6    22    1
    25     7    23    1
    26     9    24    1
    27    10    25    1
    28    10    26    1
    29    11    27    1
    30    11    28    1
    31    11    29    1
    32    13    30    1
    33    14    31    1
    34    14    32    1
    35    16    33    1
    36    18    34    1
    37    18    35    1
    38    18    36    1
@<TRIPOS>SUBSTRUCTURE
     1 UNL1        1 TEMP              0 ****  ****    0 ROOT


##########                                Name:                 105
##########                DOCK_Rotatable_Bonds:                   2
##########                         Heavy_Atoms:                  18
##########                    Molecular_Weight:             246.219
##########                       Formal_Charge:        -0.000100002
##########                     HBond_Acceptors:                   5
##########                        HBond_Donors:                   0
##########                    Descriptor_Score:           41.354507
##########          Footprint_Similarity_Score:           12.697973
##########                 desc_FPS_vdw_energy:          -28.411760
##########                  desc_FPS_es_energy:           -0.813872
##########              desc_FPS_vdw+es_energy:          -29.225632
##########                  desc_FPS_num_hbond:                   0
##########                    desc_FPS_vdw_fps:           10.494194
##########                     desc_FPS_es_fps:            2.203779
##########                     desc_FPS_hb_fps:            0.000000
##########              desc_FPS_vdw_fp_numres:                 219
##########               desc_FPS_es_fp_numres:                 219
##########               desc_FPS_hb_fp_numres:                 219
##########                 Pharmacophore_Score:           20.000000
##########              desc_FMS_num_match_tot:                   0
##########              desc_FMS_max_match_ref:                  10
##########              desc_FMS_max_match_mol:                   8
##########                 desc_FMS_match_rate:            4.000000
##########                desc_FMS_match_resid:            0.000000
##########    desc_FMS_num_hydrophobic_matched:                   0
##########          desc_FMS_num_donor_matched:                   0
##########       desc_FMS_num_acceptor_matched:                   0
##########       desc_FMS_num_aromatic_matched:                   0
##########       desc_FMS_num_positive_matched:                   0
##########       desc_FMS_num_negative_matched:                   0
##########           desc_FMS_num_ring_matched:                   0
########## Hungarian_Matching_Similarity_Score:            8.656534
##########       desc_HMS_num_unmtchd_hvy_atms:                  13
##########           desc_HMS_num_ref_hvy_atms:                  23
##########        desc_HMS_rmsd_mtchd_hvy_atms:           10.830447
##########               Property_Volume_Score:            0.000000
##########               desc_VOS_geometric_vo:            0.000000
##########                desc_VOS_hvy_atom_vo:            0.000000
##########            desc_VOS_pos_chrg_atm_vo:            0.000000
##########            desc_VOS_neg_chrg_atm_vo:            0.000000
##########         desc_VOS_hydrophobic_atm_vo:            0.000000
##########         desc_VOS_hydrophilic_atm_vo:            0.000000
##########           Internal_energy_repulsive:            6.572407

@<TRIPOS>MOLECULE
105
 28 30 1 0 0
SMALL
GASTEIGER


@<TRIPOS>ATOM
      1 O          24.9675   14.0264   38.5967 O.2     1  UNL1       -0.2452
      2 C          24.5371   12.8948   38.6728 C.ar    1  UNL1        0.3373
      3 O          23.9567   12.4362   39.8033 O.2     1  UNL1       -0.4182
      4 C          24.5887   11.9218   37.5795 C.ar    1  UNL1        0.0237
      5 C          23.4534   11.1614   40.0140 C.ar    1  UNL1        0.1876
      6 C          24.0509   10.6015   37.7191 C.ar    1  UNL1       -0.0406
      7 C          22.9335   10.9040   41.3432 C.ar    1  UNL1        0.2063
      8 C          23.4724   10.2025   38.9227 C.ar    1  UNL1        0.0637
      9 O          22.8278   11.6077   42.5296 O.3     1  UNL1       -0.4884
     10 C          22.3678    9.5809   41.5129 C.ar    1  UNL1        0.1834
     11 C          22.9076    8.9386   39.1748 C.ar    1  UNL1        0.1417
     12 C          22.9831   13.0427   42.5564 C.3     1  UNL1        0.0791
     13 O          21.8124    9.0751   42.6725 O.2     1  UNL1       -0.4590
     14 C          22.3713    8.6884   40.4871 C.ar    1  UNL1        0.0662
     15 O          22.7709    7.8336   38.3366 O.3     1  UNL1       -0.4937
     16 C          21.4747    7.7887   42.2648 C.ar    1  UNL1        0.0934
     17 C          21.7860    7.4892   40.9581 C.ar    1  UNL1       -0.0125
     18 C          23.2108    7.6867   36.9696 C.3     1  UNL1        0.0788
     19 H          25.0515   12.2721   36.6623 H       1  UNL1        0.0689
     20 H          24.1392    9.9843   36.8376 H       1  UNL1        0.0628
     21 H          22.8601   13.3950   43.5836 H       1  UNL1        0.0660
     22 H          22.2238   13.5024   41.9176 H       1  UNL1        0.0660
     23 H          23.9806   13.3071   42.1942 H       1  UNL1        0.0660
     24 H          21.0123    7.1923   43.0426 H       1  UNL1        0.1030
     25 H          21.6310    6.5638   40.4135 H       1  UNL1        0.0656
     26 H          22.8806    6.7114   36.6019 H       1  UNL1        0.0660
     27 H          24.3025    7.7285   36.9286 H       1  UNL1        0.0660
     28 H          22.7644    8.4704   36.3515 H       1  UNL1        0.0660
@<TRIPOS>BOND
     1     1     2    2
     2     2     3   ar
     3     2     4   ar
     4     3     5   ar
     5     4     6   ar
     6     5     7   ar
     7     5     8   ar
     8     7     9    1
     9     7    10   ar
    10     8    11   ar
    11     9    12    1
    12    10    13   ar
    13    10    14   ar
    14    11    15    1
    15    13    16   ar
    16    14    17   ar
    17    15    18    1
    18     6     8   ar
    19    11    14   ar
    20    16    17   ar
    21     4    19    1
    22     6    20    1
    23    12    21    1
    24    12    22    1
    25    12    23    1
    26    16    24    1
    27    17    25    1
    28    18    26    1
    29    18    27    1
    30    18    28    1
@<TRIPOS>SUBSTRUCTURE
     1 UNL1        1 TEMP              0 ****  ****    0 ROOT


##########                                Name:                 105
##########                DOCK_Rotatable_Bonds:                   2
##########                         Heavy_Atoms:                  18
##########                    Molecular_Weight:             246.219
##########                       Formal_Charge:        -0.000100002
##########                     HBond_Acceptors:                   5
##########                        HBond_Donors:                   0
##########                    Descriptor_Score:           41.471756
##########          Footprint_Similarity_Score:           12.722338
##########                 desc_FPS_vdw_energy:          -28.312769
##########                  desc_FPS_es_energy:           -0.657865
##########              desc_FPS_vdw+es_energy:          -28.970634
##########                  desc_FPS_num_hbond:                   0
##########                    desc_FPS_vdw_fps:           10.561244
##########                     desc_FPS_es_fps:            2.161094
##########                     desc_FPS_hb_fps:            0.000000
##########              desc_FPS_vdw_fp_numres:                 219
##########               desc_FPS_es_fp_numres:                 219
##########               desc_FPS_hb_fp_numres:                 219
##########                 Pharmacophore_Score:           20.000000
##########              desc_FMS_num_match_tot:                   0
##########              desc_FMS_max_match_ref:                  10
##########              desc_FMS_max_match_mol:                   8
##########                 desc_FMS_match_rate:            4.000000
##########                desc_FMS_match_resid:            0.000000
##########    desc_FMS_num_hydrophobic_matched:                   0
##########          desc_FMS_num_donor_matched:                   0
##########       desc_FMS_num_acceptor_matched:                   0
##########       desc_FMS_num_aromatic_matched:                   0
##########       desc_FMS_num_positive_matched:                   0
##########       desc_FMS_num_negative_matched:                   0
##########           desc_FMS_num_ring_matched:                   0
########## Hungarian_Matching_Similarity_Score:            8.749418
##########       desc_HMS_num_unmtchd_hvy_atms:                  13
##########           desc_HMS_num_ref_hvy_atms:                  23
##########        desc_HMS_rmsd_mtchd_hvy_atms:           10.923331
##########               Property_Volume_Score:            0.000000
##########               desc_VOS_geometric_vo:            0.000000
##########                desc_VOS_hvy_atom_vo:            0.000000
##########            desc_VOS_pos_chrg_atm_vo:            0.000000
##########            desc_VOS_neg_chrg_atm_vo:            0.000000
##########         desc_VOS_hydrophobic_atm_vo:            0.000000
##########         desc_VOS_hydrophilic_atm_vo:            0.000000
##########           Internal_energy_repulsive:            6.446616

@<TRIPOS>MOLECULE
105
 28 30 1 0 0
SMALL
GASTEIGER


@<TRIPOS>ATOM
      1 O          25.4147   13.7715   38.6496 O.2     1  UNL1       -0.2452
      2 C          24.9338   12.6619   38.7450 C.ar    1  UNL1        0.3373
      3 O          24.2322   12.2896   39.8378 O.2     1  UNL1       -0.4182
      4 C          25.0481   11.6266   37.7155 C.ar    1  UNL1        0.0237
      5 C          23.6603   11.0475   40.0676 C.ar    1  UNL1        0.1876
      6 C          24.4467   10.3362   37.8739 C.ar    1  UNL1       -0.0406
      7 C          23.0084   10.8852   41.3530 C.ar    1  UNL1        0.2063
      8 C          23.7425   10.0275   39.0364 C.ar    1  UNL1        0.0637
      9 O          22.8206   11.6590   42.4842 O.3     1  UNL1       -0.4884
     10 C          22.3763    9.5946   41.5387 C.ar    1  UNL1        0.1834
     11 C          23.1061    8.8007   39.3009 C.ar    1  UNL1        0.1417
     12 C          22.9547   13.0954   42.4301 C.3     1  UNL1        0.0791
     13 O          21.6949    9.1760   42.6654 O.2     1  UNL1       -0.4590
     14 C          22.4397    8.6452   40.5674 C.ar    1  UNL1        0.0662
     15 O          23.0039    7.6549   38.5142 O.3     1  UNL1       -0.4937
     16 C          21.3452    7.8810   42.2970 C.ar    1  UNL1        0.0934
     17 C          21.7649    7.4962   41.0441 C.ar    1  UNL1       -0.0125
     18 C          23.1624    7.5332   37.0845 C.3     1  UNL1        0.0788
     19 H          25.6084   11.9072   36.8293 H       1  UNL1        0.0689
     20 H          24.5921    9.6667   37.0393 H       1  UNL1        0.0628
     21 H          22.7643   13.5084   43.4238 H       1  UNL1        0.0660
     22 H          22.2299   13.5015   41.7190 H       1  UNL1        0.0660
     23 H          23.9689   13.3540   42.1129 H       1  UNL1        0.0660
     24 H          20.7884    7.3467   43.0580 H       1  UNL1        0.1030
     25 H          21.6244    6.5472   40.5377 H       1  UNL1        0.0656
     26 H          22.9504    6.4993   36.7988 H       1  UNL1        0.0660
     27 H          24.1927    7.7720   36.8077 H       1  UNL1        0.0660
     28 H          22.4559    8.1953   36.5766 H       1  UNL1        0.0660
@<TRIPOS>BOND
     1     1     2    2
     2     2     3   ar
     3     2     4   ar
     4     3     5   ar
     5     4     6   ar
     6     5     7   ar
     7     5     8   ar
     8     7     9    1
     9     7    10   ar
    10     8    11   ar
    11     9    12    1
    12    10    13   ar
    13    10    14   ar
    14    11    15    1
    15    13    16   ar
    16    14    17   ar
    17    15    18    1
    18     6     8   ar
    19    11    14   ar
    20    16    17   ar
    21     4    19    1
    22     6    20    1
    23    12    21    1
    24    12    22    1
    25    12    23    1
    26    16    24    1
    27    17    25    1
    28    18    26    1
    29    18    27    1
    30    18    28    1
@<TRIPOS>SUBSTRUCTURE
     1 UNL1        1 TEMP              0 ****  ****    0 ROOT


##########                                Name:                 105
##########                DOCK_Rotatable_Bonds:                   2
##########                         Heavy_Atoms:                  18
##########                    Molecular_Weight:             246.219
##########                       Formal_Charge:        -0.000100002
##########                     HBond_Acceptors:                   5
##########                        HBond_Donors:                   0
##########                    Descriptor_Score:           40.901497
##########          Footprint_Similarity_Score:           12.325292
##########                 desc_FPS_vdw_energy:          -28.473433
##########                  desc_FPS_es_energy:           -0.420662
##########              desc_FPS_vdw+es_energy:          -28.894094
##########                  desc_FPS_num_hbond:                   0
##########                    desc_FPS_vdw_fps:           10.359346
##########                     desc_FPS_es_fps:            1.965945
##########                     desc_FPS_hb_fps:            0.000000
##########              desc_FPS_vdw_fp_numres:                 219
##########               desc_FPS_es_fp_numres:                 219
##########               desc_FPS_hb_fp_numres:                 219
##########                 Pharmacophore_Score:           20.000000
##########              desc_FMS_num_match_tot:                   0
##########              desc_FMS_max_match_ref:                  10
##########              desc_FMS_max_match_mol:                   8
##########                 desc_FMS_match_rate:            4.000000
##########                desc_FMS_match_resid:            0.000000
##########    desc_FMS_num_hydrophobic_matched:                   0
##########          desc_FMS_num_donor_matched:                   0
##########       desc_FMS_num_acceptor_matched:                   0
##########       desc_FMS_num_aromatic_matched:                   0
##########       desc_FMS_num_positive_matched:                   0
##########       desc_FMS_num_negative_matched:                   0
##########           desc_FMS_num_ring_matched:                   0
########## Hungarian_Matching_Similarity_Score:            8.576204
##########       desc_HMS_num_unmtchd_hvy_atms:                  13
##########           desc_HMS_num_ref_hvy_atms:                  23
##########        desc_HMS_rmsd_mtchd_hvy_atms:           10.750117
##########               Property_Volume_Score:            0.000000
##########               desc_VOS_geometric_vo:            0.000000
##########                desc_VOS_hvy_atom_vo:            0.000000
##########            desc_VOS_pos_chrg_atm_vo:            0.000000
##########            desc_VOS_neg_chrg_atm_vo:            0.000000
##########         desc_VOS_hydrophobic_atm_vo:            0.000000
##########         desc_VOS_hydrophilic_atm_vo:            0.000000
##########           Internal_energy_repulsive:           73.926750

@<TRIPOS>MOLECULE
105
 28 30 1 0 0
SMALL
GASTEIGER


@<TRIPOS>ATOM
      1 O          23.0138   13.9532   43.3440 O.2     1  UNL1       -0.2452
      2 C          23.2087   13.3001   42.3405 C.ar    1  UNL1        0.3373
      3 O          22.7874   12.0204   42.2396 O.2     1  UNL1       -0.4182
      4 C          23.8983   13.8073   41.1523 C.ar    1  UNL1        0.0237
      5 C          22.9738   11.1732   41.1579 C.ar    1  UNL1        0.1876
      6 C          24.0883   12.9962   39.9869 C.ar    1  UNL1       -0.0406
      7 C          22.4743    9.8220   41.3262 C.ar    1  UNL1        0.2063
      8 C          23.6282   11.6808   39.9643 C.ar    1  UNL1        0.0637
      9 O          21.8617    9.1002   42.3349 O.3     1  UNL1       -0.4884
     10 C          22.6377    8.9796   40.1586 C.ar    1  UNL1        0.1834
     11 C          23.7508   10.7942   38.8785 C.ar    1  UNL1        0.1417
     12 C          21.5067    7.7140   42.1438 C.3     1  UNL1        0.0791
     13 O          22.2574    7.6557   40.0497 O.2     1  UNL1       -0.4590
     14 C          23.2361    9.4590   39.0358 C.ar    1  UNL1        0.0662
     15 O          24.3110   10.9916   37.6178 O.3     1  UNL1       -0.4937
     16 C          22.6776    7.3654   38.7559 C.ar    1  UNL1        0.0934
     17 C          23.2778    8.4086   38.0884 C.ar    1  UNL1       -0.0125
     18 C          24.9230   12.1864   37.0869 C.3     1  UNL1        0.0788
     19 H          24.2442   14.8343   41.2142 H       1  UNL1        0.0689
     20 H          24.5995   13.4897   39.1740 H       1  UNL1        0.0628
     21 H          21.0405    7.3366   43.0573 H       1  UNL1        0.0660
     22 H          22.4084    7.1348   41.9258 H       1  UNL1        0.0660
     23 H          20.8032    7.6306   41.3106 H       1  UNL1        0.0660
     24 H          22.4761    6.3452   38.4507 H       1  UNL1        0.1030
     25 H          23.6903    8.4311   37.0853 H       1  UNL1        0.0656
     26 H          25.1957   12.0024   36.0442 H       1  UNL1        0.0660
     27 H          25.8290   12.4177   37.6534 H       1  UNL1        0.0660
     28 H          24.2117   13.0157   37.1283 H       1  UNL1        0.0660
@<TRIPOS>BOND
     1     1     2    2
     2     2     3   ar
     3     2     4   ar
     4     3     5   ar
     5     4     6   ar
     6     5     7   ar
     7     5     8   ar
     8     7     9    1
     9     7    10   ar
    10     8    11   ar
    11     9    12    1
    12    10    13   ar
    13    10    14   ar
    14    11    15    1
    15    13    16   ar
    16    14    17   ar
    17    15    18    1
    18     6     8   ar
    19    11    14   ar
    20    16    17   ar
    21     4    19    1
    22     6    20    1
    23    12    21    1
    24    12    22    1
    25    12    23    1
    26    16    24    1
    27    17    25    1
    28    18    26    1
    29    18    27    1
    30    18    28    1
@<TRIPOS>SUBSTRUCTURE
     1 UNL1        1 TEMP              0 ****  ****    0 ROOT


##########                                Name:                 106
##########                DOCK_Rotatable_Bonds:                   7
##########                         Heavy_Atoms:                  25
##########                    Molecular_Weight:             337.462
##########                       Formal_Charge:        -7.45058e-09
##########                     HBond_Acceptors:                   3
##########                        HBond_Donors:                   1
##########                    Descriptor_Score:           27.087751
##########          Footprint_Similarity_Score:            5.022702
##########                 desc_FPS_vdw_energy:          -36.189114
##########                  desc_FPS_es_energy:           -1.684599
##########              desc_FPS_vdw+es_energy:          -37.873714
##########                  desc_FPS_num_hbond:                   1
##########                    desc_FPS_vdw_fps:            3.427776
##########                     desc_FPS_es_fps:            1.594926
##########                     desc_FPS_hb_fps:            1.000000
##########              desc_FPS_vdw_fp_numres:                 219
##########               desc_FPS_es_fp_numres:                 219
##########               desc_FPS_hb_fp_numres:                 219
##########                 Pharmacophore_Score:           20.000000
##########              desc_FMS_num_match_tot:                   0
##########              desc_FMS_max_match_ref:                  10
##########              desc_FMS_max_match_mol:                   9
##########                 desc_FMS_match_rate:            4.000000
##########                desc_FMS_match_resid:            0.000000
##########    desc_FMS_num_hydrophobic_matched:                   0
##########          desc_FMS_num_donor_matched:                   0
##########       desc_FMS_num_acceptor_matched:                   0
##########       desc_FMS_num_aromatic_matched:                   0
##########       desc_FMS_num_positive_matched:                   0
##########       desc_FMS_num_negative_matched:                   0
##########           desc_FMS_num_ring_matched:                   0
########## Hungarian_Matching_Similarity_Score:            2.392007
##########       desc_HMS_num_unmtchd_hvy_atms:                  16
##########           desc_HMS_num_ref_hvy_atms:                  23
##########        desc_HMS_rmsd_mtchd_hvy_atms:            3.913746
##########               Property_Volume_Score:            0.326956
##########               desc_VOS_geometric_vo:            0.449675
##########                desc_VOS_hvy_atom_vo:            0.422015
##########            desc_VOS_pos_chrg_atm_vo:            0.228847
##########            desc_VOS_neg_chrg_atm_vo:            0.264327
##########         desc_VOS_hydrophobic_atm_vo:            0.371690
##########         desc_VOS_hydrophilic_atm_vo:            0.225180
##########           Internal_energy_repulsive:           15.060264

@<TRIPOS>MOLECULE
106
 52 54 1 0 0
SMALL
GASTEIGER


@<TRIPOS>ATOM
      1 O          17.2593   14.2314   45.3367 O.2     1  UNL1       -0.2920
      2 C          17.1520   13.9868   44.1512 C.2     1  UNL1        0.1646
      3 C          18.2928   14.3089   43.2057 C.ar    1  UNL1        0.0174
      4 C          15.8330   13.3919   43.6622 C.3     1  UNL1        0.0261
      5 C          19.5458   14.6263   43.7497 C.ar    1  UNL1       -0.0513
      6 C          18.1624   14.3072   41.8080 C.ar    1  UNL1       -0.0513
      7 C          14.6313   13.7811   44.5826 C.3     1  UNL1        0.0174
      8 C          20.6310   14.9331   42.9293 C.ar    1  UNL1       -0.0611
      9 C          19.2483   14.6113   40.9881 C.ar    1  UNL1       -0.0611
     10 N          13.3809   12.9740   44.3488 N.3     1  UNL1       -0.2990
     11 C          14.3193   15.2953   44.5163 C.3     1  UNL1       -0.0369
     12 C          20.4835   14.9251   41.5470 C.ar    1  UNL1       -0.0617
     13 C          12.5222   13.3480   43.1655 C.3     1  UNL1        0.0131
     14 C          13.6383   11.5147   44.4934 C.3     1  UNL1       -0.0122
     15 C          13.6838   15.6551   43.1683 C.3     1  UNL1       -0.0502
     16 C          12.3633   14.8913   43.0296 C.3     1  UNL1       -0.0372
     17 C          11.0894   12.7196   43.2863 C.3     1  UNL1       -0.0070
     18 C          10.2280   12.8317   41.9953 C.3     1  UNL1        0.0816
     19 O          10.8232   12.0102   40.9868 O.3     1  UNL1       -0.3871
     20 C           8.7397   12.4935   42.1270 C.ar    1  UNL1       -0.0191
     21 C           8.2370   11.5087   42.9880 C.ar    1  UNL1       -0.0561
     22 C           7.8330   13.2545   41.3802 C.ar    1  UNL1       -0.0561
     23 C           6.8622   11.2997   43.0989 C.ar    1  UNL1       -0.0614
     24 C           6.4613   13.0448   41.4854 C.ar    1  UNL1       -0.0614
     25 C           5.9719   12.0673   42.3488 C.ar    1  UNL1       -0.0617
     26 H          15.9674   12.3092   43.6752 H       1  UNL1        0.0360
     27 H          15.6054   13.6474   42.6311 H       1  UNL1        0.0360
     28 H          19.6891   14.6424   44.8269 H       1  UNL1        0.0624
     29 H          17.2253   14.0673   41.3199 H       1  UNL1        0.0624
     30 H          14.9558   13.5786   45.6078 H       1  UNL1        0.0467
     31 H          21.5930   15.1792   43.3717 H       1  UNL1        0.0618
     32 H          19.1310   14.6029   39.9083 H       1  UNL1        0.0618
     33 H          15.2166   15.8971   44.6755 H       1  UNL1        0.0280
     34 H          13.6277   15.5543   45.3220 H       1  UNL1        0.0280
     35 H          21.3294   15.1626   40.9055 H       1  UNL1        0.0618
     36 H          13.0025   12.9736   42.2568 H       1  UNL1        0.0463
     37 H          14.1419   11.3229   45.4450 H       1  UNL1        0.0391
     38 H          14.2713   11.1537   43.6786 H       1  UNL1        0.0391
     39 H          12.7143   10.9365   44.4900 H       1  UNL1        0.0391
     40 H          14.3492   15.4083   42.3394 H       1  UNL1        0.0266
     41 H          13.4914   16.7297   43.1231 H       1  UNL1        0.0266
     42 H          11.6673   15.2567   43.7899 H       1  UNL1        0.0280
     43 H          11.9444   15.1421   42.0536 H       1  UNL1        0.0280
     44 H          10.5627   13.2113   44.1087 H       1  UNL1        0.0309
     45 H          11.1576   11.6603   43.5371 H       1  UNL1        0.0309
     46 H          10.2582   13.8659   41.6484 H       1  UNL1        0.0644
     47 H          10.8879   11.1025   41.3333 H       1  UNL1        0.2102
     48 H           8.9048   10.9010   43.5924 H       1  UNL1        0.0621
     49 H           8.2014   14.0294   40.7111 H       1  UNL1        0.0621
     50 H           6.4797   10.5409   43.7762 H       1  UNL1        0.0618
     51 H           5.7707   13.6474   40.9015 H       1  UNL1        0.0618
     52 H           4.9007   11.9060   42.4400 H       1  UNL1        0.0618
@<TRIPOS>BOND
     1     1     2    2
     2     2     3    1
     3     2     4    1
     4     3     5   ar
     5     3     6   ar
     6     4     7    1
     7     5     8   ar
     8     6     9   ar
     9     7    10    1
    10     7    11    1
    11     8    12   ar
    12    10    13    1
    13    10    14    1
    14    11    15    1
    15    13    16    1
    16    13    17    1
    17    17    18    1
    18    18    19    1
    19    18    20    1
    20    20    21   ar
    21    20    22   ar
    22    21    23   ar
    23    22    24   ar
    24    23    25   ar
    25     9    12   ar
    26    15    16    1
    27    24    25   ar
    28     4    26    1
    29     4    27    1
    30     5    28    1
    31     6    29    1
    32     7    30    1
    33     8    31    1
    34     9    32    1
    35    11    33    1
    36    11    34    1
    37    12    35    1
    38    13    36    1
    39    14    37    1
    40    14    38    1
    41    14    39    1
    42    15    40    1
    43    15    41    1
    44    16    42    1
    45    16    43    1
    46    17    44    1
    47    17    45    1
    48    18    46    1
    49    19    47    1
    50    21    48    1
    51    22    49    1
    52    23    50    1
    53    24    51    1
    54    25    52    1
@<TRIPOS>SUBSTRUCTURE
     1 UNL1        1 TEMP              0 ****  ****    0 ROOT


##########                                Name:                 106
##########                DOCK_Rotatable_Bonds:                   7
##########                         Heavy_Atoms:                  25
##########                    Molecular_Weight:             337.462
##########                       Formal_Charge:        -7.45058e-09
##########                     HBond_Acceptors:                   3
##########                        HBond_Donors:                   1
##########                    Descriptor_Score:           12.477205
##########          Footprint_Similarity_Score:            4.434264
##########                 desc_FPS_vdw_energy:          -35.384132
##########                  desc_FPS_es_energy:           -2.480443
##########              desc_FPS_vdw+es_energy:          -37.864574
##########                  desc_FPS_num_hbond:                   1
##########                    desc_FPS_vdw_fps:            3.239171
##########                     desc_FPS_es_fps:            1.195093
##########                     desc_FPS_hb_fps:            1.000000
##########              desc_FPS_vdw_fp_numres:                 219
##########               desc_FPS_es_fp_numres:                 219
##########               desc_FPS_hb_fp_numres:                 219
##########                 Pharmacophore_Score:            6.061067
##########              desc_FMS_num_match_tot:                   1
##########              desc_FMS_max_match_ref:                  10
##########              desc_FMS_max_match_mol:                   9
##########                 desc_FMS_match_rate:            0.900000
##########                desc_FMS_match_resid:            1.561067
##########    desc_FMS_num_hydrophobic_matched:                   0
##########          desc_FMS_num_donor_matched:                   0
##########       desc_FMS_num_acceptor_matched:                   1
##########       desc_FMS_num_aromatic_matched:                   0
##########       desc_FMS_num_positive_matched:                   0
##########       desc_FMS_num_negative_matched:                   0
##########           desc_FMS_num_ring_matched:                   0
########## Hungarian_Matching_Similarity_Score:            2.318446
##########       desc_HMS_num_unmtchd_hvy_atms:                  16
##########           desc_HMS_num_ref_hvy_atms:                  23
##########        desc_HMS_rmsd_mtchd_hvy_atms:            3.840186
##########               Property_Volume_Score:            0.336571
##########               desc_VOS_geometric_vo:            0.455819
##########                desc_VOS_hvy_atom_vo:            0.430152
##########            desc_VOS_pos_chrg_atm_vo:            0.227414
##########            desc_VOS_neg_chrg_atm_vo:            0.266519
##########         desc_VOS_hydrophobic_atm_vo:            0.381167
##########         desc_VOS_hydrophilic_atm_vo:            0.258357
##########           Internal_energy_repulsive:           15.375787

@<TRIPOS>MOLECULE
106
 52 54 1 0 0
SMALL
GASTEIGER


@<TRIPOS>ATOM
      1 O          17.2556   14.1052   45.2623 O.2     1  UNL1       -0.2920
      2 C          17.0990   13.9971   44.0621 C.2     1  UNL1        0.1646
      3 C          18.2014   14.4258   43.1134 C.ar    1  UNL1        0.0174
      4 C          15.7590   13.4604   43.5630 C.3     1  UNL1        0.0261
      5 C          19.3612   15.0036   43.6498 C.ar    1  UNL1       -0.0513
      6 C          18.1238   14.2758   41.7198 C.ar    1  UNL1       -0.0513
      7 C          14.5705   13.8893   44.4829 C.3     1  UNL1        0.0174
      8 C          20.4069   15.4190   42.8260 C.ar    1  UNL1       -0.0611
      9 C          19.1707   14.6887   40.8967 C.ar    1  UNL1       -0.0611
     10 N          13.3025   13.1046   44.2686 N.3     1  UNL1       -0.2990
     11 C          14.2895   15.4083   44.3934 C.3     1  UNL1       -0.0369
     12 C          20.3131   15.2611   41.4480 C.ar    1  UNL1       -0.0617
     13 C          12.4454   13.4769   43.0836 C.3     1  UNL1        0.0131
     14 C          13.5305   11.6428   44.4358 C.3     1  UNL1       -0.0122
     15 C          13.6543   15.7592   43.0428 C.3     1  UNL1       -0.0502
     16 C          12.3176   15.0208   42.9232 C.3     1  UNL1       -0.0372
     17 C          11.0007   12.8804   43.2218 C.3     1  UNL1       -0.0070
     18 C          10.1950   12.8340   41.8914 C.3     1  UNL1        0.0816
     19 O          10.7214   11.7758   41.0855 O.3     1  UNL1       -0.3871
     20 C           8.6747   12.6875   42.0098 C.ar    1  UNL1       -0.0191
     21 C           7.7597   13.3741   41.2003 C.ar    1  UNL1       -0.0561
     22 C           8.1823   11.7719   42.9470 C.ar    1  UNL1       -0.0561
     23 C           6.3899   13.1420   41.3259 C.ar    1  UNL1       -0.0614
     24 C           6.8160   11.5421   43.0776 C.ar    1  UNL1       -0.0614
     25 C           5.9154   12.2256   42.2638 C.ar    1  UNL1       -0.0617
     26 H          15.8496   12.3730   43.5664 H       1  UNL1        0.0360
     27 H          15.5458   13.7342   42.5336 H       1  UNL1        0.0360
     28 H          19.4606   15.1412   44.7234 H       1  UNL1        0.0624
     29 H          17.2599   13.8339   41.2379 H       1  UNL1        0.0624
     30 H          14.8962   13.6968   45.5097 H       1  UNL1        0.0467
     31 H          21.2961   15.8671   43.2622 H       1  UNL1        0.0618
     32 H          19.0957   14.5629   39.8204 H       1  UNL1        0.0618
     33 H          15.1998   15.9939   44.5382 H       1  UNL1        0.0280
     34 H          13.6076   15.6947   45.1982 H       1  UNL1        0.0280
     35 H          21.1286   15.5831   40.8040 H       1  UNL1        0.0618
     36 H          12.9130   13.0780   42.1788 H       1  UNL1        0.0463
     37 H          14.0350   11.4561   45.3879 H       1  UNL1        0.0391
     38 H          14.1516   11.2555   43.6239 H       1  UNL1        0.0391
     39 H          12.5948   11.0838   44.4464 H       1  UNL1        0.0391
     40 H          14.3101   15.4853   42.2149 H       1  UNL1        0.0266
     41 H          13.4838   16.8367   42.9810 H       1  UNL1        0.0266
     42 H          11.6334   15.4128   43.6810 H       1  UNL1        0.0280
     43 H          11.8989   15.2643   41.9453 H       1  UNL1        0.0280
     44 H          10.4469   13.4770   43.9519 H       1  UNL1        0.0309
     45 H          11.0443   11.8611   43.6077 H       1  UNL1        0.0309
     46 H          10.3527   13.7732   41.3588 H       1  UNL1        0.0644
     47 H          11.6934   11.8299   41.1099 H       1  UNL1        0.2102
     48 H           8.0990   14.0872   40.4541 H       1  UNL1        0.0621
     49 H           8.8756   11.2226   43.5806 H       1  UNL1        0.0621
     50 H           5.6872   13.6709   40.6878 H       1  UNL1        0.0618
     51 H           6.4506   10.8247   43.8076 H       1  UNL1        0.0618
     52 H           4.8478   12.0427   42.3571 H       1  UNL1        0.0618
@<TRIPOS>BOND
     1     1     2    2
     2     2     3    1
     3     2     4    1
     4     3     5   ar
     5     3     6   ar
     6     4     7    1
     7     5     8   ar
     8     6     9   ar
     9     7    10    1
    10     7    11    1
    11     8    12   ar
    12    10    13    1
    13    10    14    1
    14    11    15    1
    15    13    16    1
    16    13    17    1
    17    17    18    1
    18    18    19    1
    19    18    20    1
    20    20    21   ar
    21    20    22   ar
    22    21    23   ar
    23    22    24   ar
    24    23    25   ar
    25     9    12   ar
    26    15    16    1
    27    24    25   ar
    28     4    26    1
    29     4    27    1
    30     5    28    1
    31     6    29    1
    32     7    30    1
    33     8    31    1
    34     9    32    1
    35    11    33    1
    36    11    34    1
    37    12    35    1
    38    13    36    1
    39    14    37    1
    40    14    38    1
    41    14    39    1
    42    15    40    1
    43    15    41    1
    44    16    42    1
    45    16    43    1
    46    17    44    1
    47    17    45    1
    48    18    46    1
    49    19    47    1
    50    21    48    1
    51    22    49    1
    52    23    50    1
    53    24    51    1
    54    25    52    1
@<TRIPOS>SUBSTRUCTURE
     1 UNL1        1 TEMP              0 ****  ****    0 ROOT


##########                                Name:                 106
##########                DOCK_Rotatable_Bonds:                   7
##########                         Heavy_Atoms:                  25
##########                    Molecular_Weight:             337.462
##########                       Formal_Charge:        -7.45058e-09
##########                     HBond_Acceptors:                   3
##########                        HBond_Donors:                   1
##########                    Descriptor_Score:           26.324781
##########          Footprint_Similarity_Score:            4.242011
##########                 desc_FPS_vdw_energy:          -33.721321
##########                  desc_FPS_es_energy:           -2.657891
##########              desc_FPS_vdw+es_energy:          -36.379211
##########                  desc_FPS_num_hbond:                   1
##########                    desc_FPS_vdw_fps:            3.101091
##########                     desc_FPS_es_fps:            1.140920
##########                     desc_FPS_hb_fps:            1.000000
##########              desc_FPS_vdw_fp_numres:                 219
##########               desc_FPS_es_fp_numres:                 219
##########               desc_FPS_hb_fp_numres:                 219
##########                 Pharmacophore_Score:           20.000000
##########              desc_FMS_num_match_tot:                   0
##########              desc_FMS_max_match_ref:                  10
##########              desc_FMS_max_match_mol:                   9
##########                 desc_FMS_match_rate:            4.000000
##########                desc_FMS_match_resid:            0.000000
##########    desc_FMS_num_hydrophobic_matched:                   0
##########          desc_FMS_num_donor_matched:                   0
##########       desc_FMS_num_acceptor_matched:                   0
##########       desc_FMS_num_aromatic_matched:                   0
##########       desc_FMS_num_positive_matched:                   0
##########       desc_FMS_num_negative_matched:                   0
##########           desc_FMS_num_ring_matched:                   0
########## Hungarian_Matching_Similarity_Score:            2.408485
##########       desc_HMS_num_unmtchd_hvy_atms:                  16
##########           desc_HMS_num_ref_hvy_atms:                  23
##########        desc_HMS_rmsd_mtchd_hvy_atms:            3.930224
##########               Property_Volume_Score:            0.325716
##########               desc_VOS_geometric_vo:            0.452018
##########                desc_VOS_hvy_atom_vo:            0.427786
##########            desc_VOS_pos_chrg_atm_vo:            0.233552
##########            desc_VOS_neg_chrg_atm_vo:            0.260241
##########         desc_VOS_hydrophobic_atm_vo:            0.371660
##########         desc_VOS_hydrophilic_atm_vo:            0.209041
##########           Internal_energy_repulsive:           14.120502

@<TRIPOS>MOLECULE
106
 52 54 1 0 0
SMALL
GASTEIGER


@<TRIPOS>ATOM
      1 O          17.3876   14.3068   45.1144 O.2     1  UNL1       -0.2920
      2 C          17.1861   14.1086   43.9325 C.2     1  UNL1        0.1646
      3 C          18.1928   14.5840   42.9031 C.ar    1  UNL1        0.0174
      4 C          15.8858   13.4115   43.5376 C.3     1  UNL1        0.0261
      5 C          19.2220   15.4417   43.3174 C.ar    1  UNL1       -0.0513
      6 C          18.1502   14.2109   41.5505 C.ar    1  UNL1       -0.0513
      7 C          14.6869   13.8380   44.4451 C.3     1  UNL1        0.0174
      8 C          20.1750   15.9128   42.4147 C.ar    1  UNL1       -0.0611
      9 C          19.1047   14.6799   40.6488 C.ar    1  UNL1       -0.0611
     10 N          13.4458   13.0019   44.2710 N.3     1  UNL1       -0.2990
     11 C          14.3533   15.3414   44.2932 C.3     1  UNL1       -0.0369
     12 C          20.1178   15.5315   41.0791 C.ar    1  UNL1       -0.0617
     13 C          12.5717   13.2943   43.0760 C.3     1  UNL1        0.0131
     14 C          13.7247   11.5572   44.4983 C.3     1  UNL1       -0.0122
     15 C          13.7011   15.6129   42.9326 C.3     1  UNL1       -0.0502
     16 C          12.3901   14.8247   42.8515 C.3     1  UNL1       -0.0372
     17 C          11.1489   12.6551   43.2471 C.3     1  UNL1       -0.0070
     18 C          10.2246   12.8029   42.0040 C.3     1  UNL1        0.0816
     19 O          10.8088   12.0722   40.9219 O.3     1  UNL1       -0.3871
     20 C           8.7606   12.3872   42.1790 C.ar    1  UNL1       -0.0191
     21 C           8.3369   11.3705   43.0454 C.ar    1  UNL1       -0.0561
     22 C           7.7926   13.1068   41.4689 C.ar    1  UNL1       -0.0561
     23 C           6.9788   11.0898   43.1973 C.ar    1  UNL1       -0.0614
     24 C           6.4376   12.8256   41.6150 C.ar    1  UNL1       -0.0614
     25 C           6.0268   11.8168   42.4834 C.ar    1  UNL1       -0.0617
     26 H          16.0695   12.3423   43.6537 H       1  UNL1        0.0360
     27 H          15.6255   13.5531   42.4924 H       1  UNL1        0.0360
     28 H          19.2896   15.7578   44.3551 H       1  UNL1        0.0624
     29 H          17.3860   13.5483   41.1622 H       1  UNL1        0.0624
     30 H          15.0231   13.7003   45.4773 H       1  UNL1        0.0467
     31 H          20.9630   16.5792   42.7563 H       1  UNL1        0.0618
     32 H          19.0589   14.3794   39.6061 H       1  UNL1        0.0618
     33 H          15.2435   15.9633   44.4083 H       1  UNL1        0.0280
     34 H          13.6653   15.6379   45.0890 H       1  UNL1        0.0280
     35 H          20.8613   15.8967   40.3740 H       1  UNL1        0.0618
     36 H          13.0491   12.8737   42.1863 H       1  UNL1        0.0463
     37 H          14.2392   11.4283   45.4546 H       1  UNL1        0.0391
     38 H          14.3555   11.1575   43.7000 H       1  UNL1        0.0391
     39 H          12.8088   10.9675   44.5375 H       1  UNL1        0.0391
     40 H          14.3625   15.3268   42.1133 H       1  UNL1        0.0266
     41 H          13.4933   16.6803   42.8264 H       1  UNL1        0.0266
     42 H          11.6959   15.2248   43.5958 H       1  UNL1        0.0280
     43 H          11.9593   15.0122   41.8665 H       1  UNL1        0.0280
     44 H          10.6614   13.1181   44.1094 H       1  UNL1        0.0309
     45 H          11.2331   11.5887   43.4608 H       1  UNL1        0.0309
     46 H          10.1925   13.8562   41.7206 H       1  UNL1        0.0644
     47 H          11.7663   12.2495   40.9173 H       1  UNL1        0.2102
     48 H           9.0539   10.7929   43.6223 H       1  UNL1        0.0621
     49 H           8.0993   13.9053   40.7963 H       1  UNL1        0.0621
     50 H           6.6575   10.3066   43.8786 H       1  UNL1        0.0618
     51 H           5.6987   13.3967   41.0592 H       1  UNL1        0.0618
     52 H           4.9687   11.5997   42.6065 H       1  UNL1        0.0618
@<TRIPOS>BOND
     1     1     2    2
     2     2     3    1
     3     2     4    1
     4     3     5   ar
     5     3     6   ar
     6     4     7    1
     7     5     8   ar
     8     6     9   ar
     9     7    10    1
    10     7    11    1
    11     8    12   ar
    12    10    13    1
    13    10    14    1
    14    11    15    1
    15    13    16    1
    16    13    17    1
    17    17    18    1
    18    18    19    1
    19    18    20    1
    20    20    21   ar
    21    20    22   ar
    22    21    23   ar
    23    22    24   ar
    24    23    25   ar
    25     9    12   ar
    26    15    16    1
    27    24    25   ar
    28     4    26    1
    29     4    27    1
    30     5    28    1
    31     6    29    1
    32     7    30    1
    33     8    31    1
    34     9    32    1
    35    11    33    1
    36    11    34    1
    37    12    35    1
    38    13    36    1
    39    14    37    1
    40    14    38    1
    41    14    39    1
    42    15    40    1
    43    15    41    1
    44    16    42    1
    45    16    43    1
    46    17    44    1
    47    17    45    1
    48    18    46    1
    49    19    47    1
    50    21    48    1
    51    22    49    1
    52    23    50    1
    53    24    51    1
    54    25    52    1
@<TRIPOS>SUBSTRUCTURE
     1 UNL1        1 TEMP              0 ****  ****    0 ROOT


##########                                Name:                 110
##########                DOCK_Rotatable_Bonds:                  10
##########                         Heavy_Atoms:                  31
##########                    Molecular_Weight:             432.384
##########                       Formal_Charge:         9.97782e-05
##########                     HBond_Acceptors:                  10
##########                        HBond_Donors:                   6
##########                    Descriptor_Score:           15.549914
##########          Footprint_Similarity_Score:            6.457109
##########                 desc_FPS_vdw_energy:          -37.938961
##########                  desc_FPS_es_energy:           -4.854682
##########              desc_FPS_vdw+es_energy:          -42.793644
##########                  desc_FPS_num_hbond:                   3
##########                    desc_FPS_vdw_fps:            4.937105
##########                     desc_FPS_es_fps:            1.520004
##########                     desc_FPS_hb_fps:            1.732051
##########              desc_FPS_vdw_fp_numres:                 219
##########               desc_FPS_es_fp_numres:                 219
##########               desc_FPS_hb_fp_numres:                 219
##########                 Pharmacophore_Score:            4.987578
##########              desc_FMS_num_match_tot:                   2
##########              desc_FMS_max_match_ref:                  10
##########              desc_FMS_max_match_mol:                  20
##########                 desc_FMS_match_rate:            0.800000
##########                desc_FMS_match_resid:            0.987578
##########    desc_FMS_num_hydrophobic_matched:                   0
##########          desc_FMS_num_donor_matched:                   1
##########       desc_FMS_num_acceptor_matched:                   1
##########       desc_FMS_num_aromatic_matched:                   0
##########       desc_FMS_num_positive_matched:                   0
##########       desc_FMS_num_negative_matched:                   0
##########           desc_FMS_num_ring_matched:                   0
########## Hungarian_Matching_Similarity_Score:            4.349172
##########       desc_HMS_num_unmtchd_hvy_atms:                  18
##########           desc_HMS_num_ref_hvy_atms:                  23
##########        desc_HMS_rmsd_mtchd_hvy_atms:            5.436128
##########               Property_Volume_Score:            0.243944
##########               desc_VOS_geometric_vo:            0.477432
##########                desc_VOS_hvy_atom_vo:            0.435008
##########            desc_VOS_pos_chrg_atm_vo:            0.174485
##########            desc_VOS_neg_chrg_atm_vo:            0.100196
##########         desc_VOS_hydrophobic_atm_vo:            0.154392
##########         desc_VOS_hydrophilic_atm_vo:            0.122150
##########           Internal_energy_repulsive:            9.211619

@<TRIPOS>MOLECULE
110
 51 54 1 0 0
SMALL
GASTEIGER


@<TRIPOS>ATOM
      1 O          18.7325   14.6041   45.3120 O.2     1  UNL1       -0.2869
      2 C          18.1387   14.4391   44.2633 C.ar    1  UNL1        0.1966
      3 C          16.7503   13.9678   44.1641 C.ar    1  UNL1        0.1055
      4 C          18.7396   14.7089   42.9361 C.ar    1  UNL1        0.0288
      5 C          16.2669   13.8116   42.8808 C.ar    1  UNL1        0.1462
      6 C          15.8643   13.7107   45.2733 C.ar    1  UNL1        0.1347
      7 C          18.1626   14.5264   41.9845 C.ar    1  UNL1        0.1392
      8 O          17.1256   14.1119   41.8254 O.2     1  UNL1       -0.4544
      9 C          14.9386   13.2556   42.6820 C.ar    1  UNL1        0.0235
     10 O          16.2904   13.8856   46.5528 O.3     1  UNL1       -0.5058
     11 C          14.5698   13.2616   45.0634 C.ar    1  UNL1        0.0226
     12 C          18.8515   15.0358   40.7459 C.ar    1  UNL1        0.0176
     13 C          14.1107   12.9826   43.7718 C.ar    1  UNL1        0.1310
     14 C          18.2788   16.0661   39.9767 C.ar    1  UNL1       -0.0476
     15 C          20.0529   14.4523   40.3050 C.ar    1  UNL1       -0.0476
     16 O          12.8829   12.3620   43.5649 O.3     1  UNL1       -0.4606
     17 C          18.8934   16.4941   38.7977 C.ar    1  UNL1       -0.0195
     18 C          20.6566   14.8867   39.1250 C.ar    1  UNL1       -0.0195
     19 C          12.2512   12.3158   42.2475 C.3     1  UNL1        0.2308
     20 C          20.0808   15.9033   38.3684 C.ar    1  UNL1        0.1169
     21 O          11.8969   13.6486   41.7844 O.3     1  UNL1       -0.3313
     22 C          10.9560   11.4785   42.2807 C.3     1  UNL1        0.1454
     23 O          20.6865   16.3006   37.2103 O.3     1  UNL1       -0.5068
     24 C          10.9958   14.3859   42.6497 C.3     1  UNL1        0.1140
     25 O          11.2427   10.1385   42.6843 O.3     1  UNL1       -0.3829
     26 C           9.9200   12.1404   43.2256 C.3     1  UNL1        0.1152
     27 C           9.6592   13.6044   42.7970 C.3     1  UNL1        0.1120
     28 C          10.8466   15.8254   42.0980 C.3     1  UNL1        0.0731
     29 O           8.6735   11.4487   43.1389 O.3     1  UNL1       -0.3864
     30 O           8.9201   13.5737   41.5672 O.3     1  UNL1       -0.3865
     31 O          12.0793   16.3319   41.5826 O.3     1  UNL1       -0.3924
     32 H          19.7428   15.1207   42.9944 H       1  UNL1        0.0693
     33 H          14.6010   13.0247   41.6732 H       1  UNL1        0.0691
     34 H          15.5196   13.7591   47.1473 H       1  UNL1        0.2922
     35 H          13.9393   13.0969   45.9312 H       1  UNL1        0.0691
     36 H          17.3469   16.5320   40.2872 H       1  UNL1        0.0626
     37 H          20.5177   13.6491   40.8703 H       1  UNL1        0.0626
     38 H          18.4347   17.2862   38.2103 H       1  UNL1        0.0654
     39 H          21.5818   14.4239   38.7898 H       1  UNL1        0.0654
     40 H          12.9705   11.8822   41.5349 H       1  UNL1        0.1084
     41 H          10.5490   11.4490   41.2667 H       1  UNL1        0.0683
     42 H          21.4723   15.7572   37.0165 H       1  UNL1        0.2921
     43 H          11.4597   14.4630   43.6381 H       1  UNL1        0.0647
     44 H          11.5916   10.1670   43.5889 H       1  UNL1        0.2102
     45 H          10.2906   12.1122   44.2545 H       1  UNL1        0.0648
     46 H           9.0489   14.0953   43.5599 H       1  UNL1        0.0647
     47 H          10.5259   16.4840   42.9102 H       1  UNL1        0.0584
     48 H          10.0867   15.8458   41.3133 H       1  UNL1        0.0584
     49 H           8.0226   12.0755   43.5255 H       1  UNL1        0.2100
     50 H           8.2949   14.3214   41.5793 H       1  UNL1        0.2100
     51 H          12.6988   16.4108   42.3276 H       1  UNL1        0.2095
@<TRIPOS>BOND
     1     1     2    2
     2     2     3   ar
     3     2     4   ar
     4     3     5   ar
     5     3     6   ar
     6     4     7   ar
     7     5     8   ar
     8     5     9   ar
     9     6    10    1
    10     6    11   ar
    11     7    12    1
    12     9    13   ar
    13    12    14   ar
    14    12    15   ar
    15    13    16    1
    16    14    17   ar
    17    15    18   ar
    18    16    19    1
    19    17    20   ar
    20    19    21    1
    21    19    22    1
    22    20    23    1
    23    21    24    1
    24    22    25    1
    25    22    26    1
    26    24    27    1
    27    24    28    1
    28    26    29    1
    29    27    30    1
    30    28    31    1
    31     7     8   ar
    32    11    13   ar
    33    18    20   ar
    34    26    27    1
    35     4    32    1
    36     9    33    1
    37    10    34    1
    38    11    35    1
    39    14    36    1
    40    15    37    1
    41    17    38    1
    42    18    39    1
    43    19    40    1
    44    22    41    1
    45    23    42    1
    46    24    43    1
    47    25    44    1
    48    26    45    1
    49    27    46    1
    50    28    47    1
    51    28    48    1
    52    29    49    1
    53    30    50    1
    54    31    51    1
@<TRIPOS>SUBSTRUCTURE
     1 UNL1        1 TEMP              0 ****  ****    0 ROOT


##########                                Name:                 110
##########                DOCK_Rotatable_Bonds:                  10
##########                         Heavy_Atoms:                  31
##########                    Molecular_Weight:             432.384
##########                       Formal_Charge:         9.97782e-05
##########                     HBond_Acceptors:                  10
##########                        HBond_Donors:                   6
##########                    Descriptor_Score:           31.014324
##########          Footprint_Similarity_Score:            6.803701
##########                 desc_FPS_vdw_energy:          -37.746994
##########                  desc_FPS_es_energy:           -4.320506
##########              desc_FPS_vdw+es_energy:          -42.067501
##########                  desc_FPS_num_hbond:                   3
##########                    desc_FPS_vdw_fps:            5.021708
##########                     desc_FPS_es_fps:            1.781993
##########                     desc_FPS_hb_fps:            1.732051
##########              desc_FPS_vdw_fp_numres:                 219
##########               desc_FPS_es_fp_numres:                 219
##########               desc_FPS_hb_fp_numres:                 219
##########                 Pharmacophore_Score:           20.000000
##########              desc_FMS_num_match_tot:                   0
##########              desc_FMS_max_match_ref:                  10
##########              desc_FMS_max_match_mol:                  20
##########                 desc_FMS_match_rate:            4.000000
##########                desc_FMS_match_resid:            0.000000
##########    desc_FMS_num_hydrophobic_matched:                   0
##########          desc_FMS_num_donor_matched:                   0
##########       desc_FMS_num_acceptor_matched:                   0
##########       desc_FMS_num_aromatic_matched:                   0
##########       desc_FMS_num_positive_matched:                   0
##########       desc_FMS_num_negative_matched:                   0
##########           desc_FMS_num_ring_matched:                   0
########## Hungarian_Matching_Similarity_Score:            4.456010
##########       desc_HMS_num_unmtchd_hvy_atms:                  18
##########           desc_HMS_num_ref_hvy_atms:                  23
##########        desc_HMS_rmsd_mtchd_hvy_atms:            5.542966
##########               Property_Volume_Score:            0.245389
##########               desc_VOS_geometric_vo:            0.489615
##########                desc_VOS_hvy_atom_vo:            0.439659
##########            desc_VOS_pos_chrg_atm_vo:            0.172458
##########            desc_VOS_neg_chrg_atm_vo:            0.098982
##########         desc_VOS_hydrophobic_atm_vo:            0.154534
##########         desc_VOS_hydrophilic_atm_vo:            0.117083
##########           Internal_energy_repulsive:            9.265155

@<TRIPOS>MOLECULE
110
 51 54 1 0 0
SMALL
GASTEIGER


@<TRIPOS>ATOM
      1 O          18.7633   14.5151   45.1785 O.2     1  UNL1       -0.2869
      2 C          18.1928   14.3118   44.1237 C.ar    1  UNL1        0.1966
      3 C          16.7999   13.8568   44.0107 C.ar    1  UNL1        0.1055
      4 C          18.8301   14.5128   42.8012 C.ar    1  UNL1        0.0288
      5 C          16.3456   13.6501   42.7239 C.ar    1  UNL1        0.1462
      6 C          15.8832   13.6629   45.1077 C.ar    1  UNL1        0.1347
      7 C          18.2736   14.2960   41.8445 C.ar    1  UNL1        0.1392
      8 O          17.2345   13.8900   41.6781 O.2     1  UNL1       -0.4544
      9 C          15.0139   13.1052   42.5169 C.ar    1  UNL1        0.0235
     10 O          16.2805   13.8890   46.3885 O.3     1  UNL1       -0.5058
     11 C          14.5872   13.2238   44.8857 C.ar    1  UNL1        0.0226
     12 C          19.0005   14.7391   40.6021 C.ar    1  UNL1        0.0176
     13 C          14.1555   12.8937   43.5966 C.ar    1  UNL1        0.1310
     14 C          20.3053   14.2856   40.3320 C.ar    1  UNL1       -0.0476
     15 C          18.4087   15.6583   39.7173 C.ar    1  UNL1       -0.0476
     16 O          12.9236   12.2825   43.3869 O.3     1  UNL1       -0.4606
     17 C          20.9958   14.7455   39.2084 C.ar    1  UNL1       -0.0195
     18 C          19.1086   16.1120   38.5992 C.ar    1  UNL1       -0.0195
     19 C          12.2293   12.3606   42.1029 C.3     1  UNL1        0.2308
     20 C          20.4003   15.6614   38.3425 C.ar    1  UNL1        0.1169
     21 O          11.8677   13.7322   41.7803 O.3     1  UNL1       -0.3313
     22 C          10.9282   11.5320   42.1227 C.3     1  UNL1        0.1454
     23 O          21.0677   16.1317   37.2473 O.3     1  UNL1       -0.5068
     24 C          11.0168   14.3933   42.7516 C.3     1  UNL1        0.1140
     25 O          11.2195   10.1590   42.3886 O.3     1  UNL1       -0.3829
     26 C           9.9456   12.1115   43.1728 C.3     1  UNL1        0.1152
     27 C           9.6804   13.6102   42.8919 C.3     1  UNL1        0.1120
     28 C          10.8570   15.8780   42.3407 C.3     1  UNL1        0.0731
     29 O           8.6890   11.4386   43.0841 O.3     1  UNL1       -0.3864
     30 O           8.8833   13.6964   41.7016 O.3     1  UNL1       -0.3865
     31 O          11.9086   16.3105   41.4754 O.3     1  UNL1       -0.3924
     32 H          19.8379   14.9120   42.8662 H       1  UNL1        0.0693
     33 H          14.6976   12.8341   41.5113 H       1  UNL1        0.0691
     34 H          15.5106   14.2407   46.8855 H       1  UNL1        0.2922
     35 H          13.9332   13.1076   45.7438 H       1  UNL1        0.0691
     36 H          20.7926   13.5806   41.0009 H       1  UNL1        0.0626
     37 H          17.4061   16.0352   39.9002 H       1  UNL1        0.0626
     38 H          22.0063   14.3914   39.0173 H       1  UNL1        0.0654
     39 H          18.6441   16.8280   37.9254 H       1  UNL1        0.0654
     40 H          12.9092   11.9892   41.3199 H       1  UNL1        0.1084
     41 H          10.4731   11.5976   41.1311 H       1  UNL1        0.0683
     42 H          21.7787   15.5223   36.9764 H       1  UNL1        0.2921
     43 H          11.5281   14.3770   43.7192 H       1  UNL1        0.0647
     44 H          12.1675   10.0864   42.5807 H       1  UNL1        0.2102
     45 H          10.3645   11.9873   44.1757 H       1  UNL1        0.0648
     46 H           9.1125   14.0333   43.7249 H       1  UNL1        0.0647
     47 H          10.8852   16.4991   43.2405 H       1  UNL1        0.0584
     48 H           9.8937   16.0254   41.8467 H       1  UNL1        0.0584
     49 H           8.1476   11.8439   43.7973 H       1  UNL1        0.2100
     50 H           8.7201   14.6407   41.5230 H       1  UNL1        0.2100
     51 H          11.5588   17.0325   40.9263 H       1  UNL1        0.2095
@<TRIPOS>BOND
     1     1     2    2
     2     2     3   ar
     3     2     4   ar
     4     3     5   ar
     5     3     6   ar
     6     4     7   ar
     7     5     8   ar
     8     5     9   ar
     9     6    10    1
    10     6    11   ar
    11     7    12    1
    12     9    13   ar
    13    12    14   ar
    14    12    15   ar
    15    13    16    1
    16    14    17   ar
    17    15    18   ar
    18    16    19    1
    19    17    20   ar
    20    19    21    1
    21    19    22    1
    22    20    23    1
    23    21    24    1
    24    22    25    1
    25    22    26    1
    26    24    27    1
    27    24    28    1
    28    26    29    1
    29    27    30    1
    30    28    31    1
    31     7     8   ar
    32    11    13   ar
    33    18    20   ar
    34    26    27    1
    35     4    32    1
    36     9    33    1
    37    10    34    1
    38    11    35    1
    39    14    36    1
    40    15    37    1
    41    17    38    1
    42    18    39    1
    43    19    40    1
    44    22    41    1
    45    23    42    1
    46    24    43    1
    47    25    44    1
    48    26    45    1
    49    27    46    1
    50    28    47    1
    51    28    48    1
    52    29    49    1
    53    30    50    1
    54    31    51    1
@<TRIPOS>SUBSTRUCTURE
     1 UNL1        1 TEMP              0 ****  ****    0 ROOT


##########                                Name:                 110
##########                DOCK_Rotatable_Bonds:                  10
##########                         Heavy_Atoms:                  31
##########                    Molecular_Weight:             432.384
##########                       Formal_Charge:         9.97782e-05
##########                     HBond_Acceptors:                  10
##########                        HBond_Donors:                   6
##########                    Descriptor_Score:           31.501877
##########          Footprint_Similarity_Score:            7.127623
##########                 desc_FPS_vdw_energy:          -38.850090
##########                  desc_FPS_es_energy:           -3.970217
##########              desc_FPS_vdw+es_energy:          -42.820309
##########                  desc_FPS_num_hbond:                   3
##########                    desc_FPS_vdw_fps:            5.587267
##########                     desc_FPS_es_fps:            1.540356
##########                     desc_FPS_hb_fps:            1.732051
##########              desc_FPS_vdw_fp_numres:                 219
##########               desc_FPS_es_fp_numres:                 219
##########               desc_FPS_hb_fp_numres:                 219
##########                 Pharmacophore_Score:           20.000000
##########              desc_FMS_num_match_tot:                   0
##########              desc_FMS_max_match_ref:                  10
##########              desc_FMS_max_match_mol:                  20
##########                 desc_FMS_match_rate:            4.000000
##########                desc_FMS_match_resid:            0.000000
##########    desc_FMS_num_hydrophobic_matched:                   0
##########          desc_FMS_num_donor_matched:                   0
##########       desc_FMS_num_acceptor_matched:                   0
##########       desc_FMS_num_aromatic_matched:                   0
##########       desc_FMS_num_positive_matched:                   0
##########       desc_FMS_num_negative_matched:                   0
##########           desc_FMS_num_ring_matched:                   0
########## Hungarian_Matching_Similarity_Score:            4.623839
##########       desc_HMS_num_unmtchd_hvy_atms:                  18
##########           desc_HMS_num_ref_hvy_atms:                  23
##########        desc_HMS_rmsd_mtchd_hvy_atms:            5.710795
##########               Property_Volume_Score:            0.249585
##########               desc_VOS_geometric_vo:            0.502338
##########                desc_VOS_hvy_atom_vo:            0.453469
##########            desc_VOS_pos_chrg_atm_vo:            0.173949
##########            desc_VOS_neg_chrg_atm_vo:            0.109525
##########         desc_VOS_hydrophobic_atm_vo:            0.147486
##########         desc_VOS_hydrophilic_atm_vo:            0.110740
##########           Internal_energy_repulsive:            8.924573

@<TRIPOS>MOLECULE
110
 51 54 1 0 0
SMALL
GASTEIGER


@<TRIPOS>ATOM
      1 O          18.7530   14.6263   45.1799 O.2     1  UNL1       -0.2869
      2 C          18.2685   14.3594   44.0966 C.ar    1  UNL1        0.1966
      3 C          16.9143   13.8213   43.9059 C.ar    1  UNL1        0.1055
      4 C          18.9829   14.5581   42.8137 C.ar    1  UNL1        0.0288
      5 C          16.5617   13.5510   42.5991 C.ar    1  UNL1        0.1462
      6 C          15.9366   13.6069   44.9450 C.ar    1  UNL1        0.1347
      7 C          18.5064   14.2815   41.8297 C.ar    1  UNL1        0.1392
      8 O          17.5055   13.8113   41.6078 O.2     1  UNL1       -0.4544
      9 C          15.2799   12.9240   42.3217 C.ar    1  UNL1        0.0235
     10 O          16.2319   13.8930   46.2412 O.3     1  UNL1       -0.5058
     11 C          14.6856   13.0871   44.6514 C.ar    1  UNL1        0.0226
     12 C          19.2910   14.7293   40.6247 C.ar    1  UNL1        0.0176
     13 C          14.3625   12.6948   43.3481 C.ar    1  UNL1        0.1310
     14 C          18.6484   15.3545   39.5397 C.ar    1  UNL1       -0.0476
     15 C          20.6726   14.4803   40.5384 C.ar    1  UNL1       -0.0476
     16 O          13.1839   12.0074   43.0768 O.3     1  UNL1       -0.4606
     17 C          19.3721   15.7149   38.4008 C.ar    1  UNL1       -0.0195
     18 C          21.3847   14.8431   39.3952 C.ar    1  UNL1       -0.0195
     19 C          12.3531   12.3232   41.9162 C.3     1  UNL1        0.2308
     20 C          20.7399   15.4570   38.3253 C.ar    1  UNL1        0.1169
     21 O          12.0602   13.7465   41.8477 O.3     1  UNL1       -0.3313
     22 C          11.0048   11.5763   41.9775 C.3     1  UNL1        0.1454
     23 O          21.4590   15.7902   37.2127 O.3     1  UNL1       -0.5068
     24 C          11.3797   14.2953   43.0052 C.3     1  UNL1        0.1140
     25 O          11.2213   10.1644   41.9991 O.3     1  UNL1       -0.3829
     26 C          10.1968   12.0399   43.2170 C.3     1  UNL1        0.1152
     27 C          10.0137   13.5765   43.1959 C.3     1  UNL1        0.1120
     28 C          11.2849   15.8325   42.8413 C.3     1  UNL1        0.0731
     29 O           8.8916   11.4607   43.1892 O.3     1  UNL1       -0.3864
     30 O           9.0927   13.8915   42.1414 O.3     1  UNL1       -0.3865
     31 O          12.3113   16.3446   41.9893 O.3     1  UNL1       -0.3924
     32 H          19.9600   15.0168   42.9328 H       1  UNL1        0.0693
     33 H          15.0489   12.6057   41.3068 H       1  UNL1        0.0691
     34 H          15.3865   14.0421   46.7172 H       1  UNL1        0.2922
     35 H          13.9817   12.9584   45.4673 H       1  UNL1        0.0691
     36 H          17.5801   15.5539   39.5732 H       1  UNL1        0.0626
     37 H          21.1986   13.9920   41.3543 H       1  UNL1        0.0626
     38 H          18.8598   16.1906   37.5676 H       1  UNL1        0.0654
     39 H          22.4513   14.6396   39.3363 H       1  UNL1        0.0654
     40 H          12.9078   12.0404   41.0076 H       1  UNL1        0.1084
     41 H          10.4439   11.8208   41.0718 H       1  UNL1        0.0683
     42 H          22.3897   15.9770   37.4346 H       1  UNL1        0.2921
     43 H          11.9971   14.1000   43.8876 H       1  UNL1        0.0647
     44 H          11.5732    9.9294   42.8719 H       1  UNL1        0.2102
     45 H          10.7187   11.7378   44.1297 H       1  UNL1        0.0648
     46 H           9.5796   13.8963   44.1470 H       1  UNL1        0.0647
     47 H          11.3984   16.3007   43.8232 H       1  UNL1        0.0584
     48 H          10.3064   16.1037   42.4380 H       1  UNL1        0.0584
     49 H           8.4617   11.7958   44.0071 H       1  UNL1        0.2100
     50 H           8.7408   14.7842   42.3132 H       1  UNL1        0.2100
     51 H          13.1543   16.2700   42.4675 H       1  UNL1        0.2095
@<TRIPOS>BOND
     1     1     2    2
     2     2     3   ar
     3     2     4   ar
     4     3     5   ar
     5     3     6   ar
     6     4     7   ar
     7     5     8   ar
     8     5     9   ar
     9     6    10    1
    10     6    11   ar
    11     7    12    1
    12     9    13   ar
    13    12    14   ar
    14    12    15   ar
    15    13    16    1
    16    14    17   ar
    17    15    18   ar
    18    16    19    1
    19    17    20   ar
    20    19    21    1
    21    19    22    1
    22    20    23    1
    23    21    24    1
    24    22    25    1
    25    22    26    1
    26    24    27    1
    27    24    28    1
    28    26    29    1
    29    27    30    1
    30    28    31    1
    31     7     8   ar
    32    11    13   ar
    33    18    20   ar
    34    26    27    1
    35     4    32    1
    36     9    33    1
    37    10    34    1
    38    11    35    1
    39    14    36    1
    40    15    37    1
    41    17    38    1
    42    18    39    1
    43    19    40    1
    44    22    41    1
    45    23    42    1
    46    24    43    1
    47    25    44    1
    48    26    45    1
    49    27    46    1
    50    28    47    1
    51    28    48    1
    52    29    49    1
    53    30    50    1
    54    31    51    1
@<TRIPOS>SUBSTRUCTURE
     1 UNL1        1 TEMP              0 ****  ****    0 ROOT


##########                                Name:                 111
##########                DOCK_Rotatable_Bonds:                   6
##########                         Heavy_Atoms:                  14
##########                    Molecular_Weight:             194.187
##########                       Formal_Charge:         0.000100031
##########                     HBond_Acceptors:                   4
##########                        HBond_Donors:                   2
##########                    Descriptor_Score:           15.162930
##########          Footprint_Similarity_Score:            8.411139
##########                 desc_FPS_vdw_energy:          -20.585323
##########                  desc_FPS_es_energy:           -6.942560
##########              desc_FPS_vdw+es_energy:          -27.527884
##########                  desc_FPS_num_hbond:                   3
##########                    desc_FPS_vdw_fps:            4.966864
##########                     desc_FPS_es_fps:            3.444276
##########                     desc_FPS_hb_fps:            2.236068
##########              desc_FPS_vdw_fp_numres:                 219
##########               desc_FPS_es_fp_numres:                 219
##########               desc_FPS_hb_fp_numres:                 219
##########                 Pharmacophore_Score:            5.182857
##########              desc_FMS_num_match_tot:                   1
##########              desc_FMS_max_match_ref:                  10
##########              desc_FMS_max_match_mol:                   9
##########                 desc_FMS_match_rate:            0.900000
##########                desc_FMS_match_resid:            0.682856
##########    desc_FMS_num_hydrophobic_matched:                   1
##########          desc_FMS_num_donor_matched:                   0
##########       desc_FMS_num_acceptor_matched:                   0
##########       desc_FMS_num_aromatic_matched:                   0
##########       desc_FMS_num_positive_matched:                   0
##########       desc_FMS_num_negative_matched:                   0
##########           desc_FMS_num_ring_matched:                   0
########## Hungarian_Matching_Similarity_Score:            1.819483
##########       desc_HMS_num_unmtchd_hvy_atms:                  13
##########           desc_HMS_num_ref_hvy_atms:                  23
##########        desc_HMS_rmsd_mtchd_hvy_atms:            3.993396
##########               Property_Volume_Score:            0.250549
##########               desc_VOS_geometric_vo:            0.336681
##########                desc_VOS_hvy_atom_vo:            0.308287
##########            desc_VOS_pos_chrg_atm_vo:            0.282463
##########            desc_VOS_neg_chrg_atm_vo:            0.171308
##########         desc_VOS_hydrophobic_atm_vo:            0.185673
##########         desc_VOS_hydrophilic_atm_vo:            0.218884
##########           Internal_energy_repulsive:            5.824850

@<TRIPOS>MOLECULE
111
 24 24 1 0 0
SMALL
GASTEIGER


@<TRIPOS>ATOM
      1 O          16.4752   15.3706   45.1759 O.2     1  UNL1       -0.2458
      2 C          15.9422   14.3134   45.4388 C.2     1  UNL1        0.3296
      3 O          16.4774   13.4784   46.2945 O.3     1  UNL1       -0.4775
      4 C          14.6345   13.9377   44.8421 C.2     1  UNL1        0.0229
      5 C          14.0472   12.7335   44.7430 C.2     1  UNL1       -0.0477
      6 C          12.7317   12.4468   44.1278 C.ar    1  UNL1       -0.0211
      7 C          12.3989   11.1651   43.6767 C.ar    1  UNL1       -0.0094
      8 C          11.8187   13.4851   43.9633 C.ar    1  UNL1       -0.0509
      9 C          11.1663   10.9184   43.0589 C.ar    1  UNL1        0.1590
     10 C          10.5914   13.2493   43.3522 C.ar    1  UNL1       -0.0158
     11 O          10.8879    9.6471   42.6292 O.3     1  UNL1       -0.5033
     12 C          10.2517   11.9781   42.8916 C.ar    1  UNL1        0.1613
     13 O           9.0036   11.8802   42.2862 O.3     1  UNL1       -0.4915
     14 C           8.1593   12.9842   41.8824 C.3     1  UNL1        0.0790
     15 H          15.9328   12.6806   46.3629 H       1  UNL1        0.2954
     16 H          14.0741   14.7719   44.4199 H       1  UNL1        0.0689
     17 H          14.5506   11.8659   45.1672 H       1  UNL1        0.0626
     18 H          13.1117   10.3531   43.8017 H       1  UNL1        0.0661
     19 H          12.0640   14.4886   44.3040 H       1  UNL1        0.0625
     20 H           9.8898   14.0705   43.2248 H       1  UNL1        0.0655
     21 H          11.5528    9.0068   42.9324 H       1  UNL1        0.2923
     22 H           7.2225   12.5853   41.4853 H       1  UNL1        0.0660
     23 H           8.6635   13.5648   41.1052 H       1  UNL1        0.0660
     24 H           7.9460   13.6179   42.7476 H       1  UNL1        0.0660
@<TRIPOS>BOND
     1     1     2    2
     2     2     3    1
     3     2     4    1
     4     4     5    2
     5     5     6    1
     6     6     7   ar
     7     6     8   ar
     8     7     9   ar
     9     8    10   ar
    10     9    11    1
    11     9    12   ar
    12    12    13    1
    13    13    14    1
    14    10    12   ar
    15     3    15    1
    16     4    16    1
    17     5    17    1
    18     7    18    1
    19     8    19    1
    20    10    20    1
    21    11    21    1
    22    14    22    1
    23    14    23    1
    24    14    24    1
@<TRIPOS>SUBSTRUCTURE
     1 UNL1        1 TEMP              0 ****  ****    0 ROOT


##########                                Name:                 111
##########                DOCK_Rotatable_Bonds:                   6
##########                         Heavy_Atoms:                  14
##########                    Molecular_Weight:             194.187
##########                       Formal_Charge:         0.000100031
##########                     HBond_Acceptors:                   4
##########                        HBond_Donors:                   2
##########                    Descriptor_Score:           13.413202
##########          Footprint_Similarity_Score:            6.531414
##########                 desc_FPS_vdw_energy:          -23.306175
##########                  desc_FPS_es_energy:           -4.870503
##########              desc_FPS_vdw+es_energy:          -28.176678
##########                  desc_FPS_num_hbond:                   2
##########                    desc_FPS_vdw_fps:            4.288999
##########                     desc_FPS_es_fps:            2.242415
##########                     desc_FPS_hb_fps:            1.414214
##########              desc_FPS_vdw_fp_numres:                 219
##########               desc_FPS_es_fp_numres:                 219
##########               desc_FPS_hb_fp_numres:                 219
##########                 Pharmacophore_Score:            5.400568
##########              desc_FMS_num_match_tot:                   1
##########              desc_FMS_max_match_ref:                  10
##########              desc_FMS_max_match_mol:                   9
##########                 desc_FMS_match_rate:            0.900000
##########                desc_FMS_match_resid:            0.900568
##########    desc_FMS_num_hydrophobic_matched:                   0
##########          desc_FMS_num_donor_matched:                   0
##########       desc_FMS_num_acceptor_matched:                   1
##########       desc_FMS_num_aromatic_matched:                   0
##########       desc_FMS_num_positive_matched:                   0
##########       desc_FMS_num_negative_matched:                   0
##########           desc_FMS_num_ring_matched:                   0
########## Hungarian_Matching_Similarity_Score:            1.750584
##########       desc_HMS_num_unmtchd_hvy_atms:                  13
##########           desc_HMS_num_ref_hvy_atms:                  23
##########        desc_HMS_rmsd_mtchd_hvy_atms:            3.924498
##########               Property_Volume_Score:            0.269364
##########               desc_VOS_geometric_vo:            0.354197
##########                desc_VOS_hvy_atom_vo:            0.329385
##########            desc_VOS_pos_chrg_atm_vo:            0.273395
##########            desc_VOS_neg_chrg_atm_vo:            0.196296
##########         desc_VOS_hydrophobic_atm_vo:            0.202008
##########         desc_VOS_hydrophilic_atm_vo:            0.260903
##########           Internal_energy_repulsive:            3.396430

@<TRIPOS>MOLECULE
111
 24 24 1 0 0
SMALL
GASTEIGER


@<TRIPOS>ATOM
      1 O          16.5921   13.8310   46.2754 O.2     1  UNL1       -0.2458
      2 C          16.4003   13.8989   45.0797 C.2     1  UNL1        0.3296
      3 O          17.3436   14.2981   44.2632 O.3     1  UNL1       -0.4775
      4 C          15.1053   13.4857   44.4801 C.2     1  UNL1        0.0229
      5 C          13.9270   13.2254   45.0704 C.2     1  UNL1       -0.0477
      6 C          12.6768   12.8163   44.3915 C.ar    1  UNL1       -0.0211
      7 C          12.5322   11.5433   43.8299 C.ar    1  UNL1       -0.0094
      8 C          11.6344   13.7326   44.2794 C.ar    1  UNL1       -0.0509
      9 C          11.3587   11.1851   43.1541 C.ar    1  UNL1        0.1590
     10 C          10.4646   13.3854   43.6113 C.ar    1  UNL1       -0.0158
     11 O          11.2661    9.9279   42.6166 O.3     1  UNL1       -0.5033
     12 C          10.3119   12.1225   43.0409 C.ar    1  UNL1        0.1613
     13 O           9.1024   11.9083   42.3888 O.3     1  UNL1       -0.4915
     14 C           8.0149   12.8558   42.2694 C.3     1  UNL1        0.0790
     15 H          17.1273   14.0383   43.3558 H       1  UNL1        0.2954
     16 H          15.1239   13.3765   43.3957 H       1  UNL1        0.0689
     17 H          13.8427   13.3395   46.1501 H       1  UNL1        0.0626
     18 H          13.3463   10.8269   43.9138 H       1  UNL1        0.0661
     19 H          11.7328   14.7283   44.7061 H       1  UNL1        0.0625
     20 H           9.6603   14.1126   43.5260 H       1  UNL1        0.0655
     21 H          12.1380    9.5131   42.5088 H       1  UNL1        0.2923
     22 H           7.1838   12.3752   41.7471 H       1  UNL1        0.0660
     23 H           8.3484   13.7247   41.6958 H       1  UNL1        0.0660
     24 H           7.6872   13.1649   43.2656 H       1  UNL1        0.0660
@<TRIPOS>BOND
     1     1     2    2
     2     2     3    1
     3     2     4    1
     4     4     5    2
     5     5     6    1
     6     6     7   ar
     7     6     8   ar
     8     7     9   ar
     9     8    10   ar
    10     9    11    1
    11     9    12   ar
    12    12    13    1
    13    13    14    1
    14    10    12   ar
    15     3    15    1
    16     4    16    1
    17     5    17    1
    18     7    18    1
    19     8    19    1
    20    10    20    1
    21    11    21    1
    22    14    22    1
    23    14    23    1
    24    14    24    1
@<TRIPOS>SUBSTRUCTURE
     1 UNL1        1 TEMP              0 ****  ****    0 ROOT


##########                                Name:                 111
##########                DOCK_Rotatable_Bonds:                   6
##########                         Heavy_Atoms:                  14
##########                    Molecular_Weight:             194.187
##########                       Formal_Charge:         0.000100031
##########                     HBond_Acceptors:                   4
##########                        HBond_Donors:                   2
##########                    Descriptor_Score:           39.197201
##########          Footprint_Similarity_Score:           11.476687
##########                 desc_FPS_vdw_energy:          -25.347466
##########                  desc_FPS_es_energy:           -1.471613
##########              desc_FPS_vdw+es_energy:          -26.819078
##########                  desc_FPS_num_hbond:                   1
##########                    desc_FPS_vdw_fps:            9.267460
##########                     desc_FPS_es_fps:            2.209227
##########                     desc_FPS_hb_fps:            1.000000
##########              desc_FPS_vdw_fp_numres:                 219
##########               desc_FPS_es_fp_numres:                 219
##########               desc_FPS_hb_fp_numres:                 219
##########                 Pharmacophore_Score:           20.000000
##########              desc_FMS_num_match_tot:                   0
##########              desc_FMS_max_match_ref:                  10
##########              desc_FMS_max_match_mol:                   9
##########                 desc_FMS_match_rate:            4.000000
##########                desc_FMS_match_resid:            0.000000
##########    desc_FMS_num_hydrophobic_matched:                   0
##########          desc_FMS_num_donor_matched:                   0
##########       desc_FMS_num_acceptor_matched:                   0
##########       desc_FMS_num_aromatic_matched:                   0
##########       desc_FMS_num_positive_matched:                   0
##########       desc_FMS_num_negative_matched:                   0
##########           desc_FMS_num_ring_matched:                   0
########## Hungarian_Matching_Similarity_Score:            7.720511
##########       desc_HMS_num_unmtchd_hvy_atms:                  13
##########           desc_HMS_num_ref_hvy_atms:                  23
##########        desc_HMS_rmsd_mtchd_hvy_atms:            9.894424
##########               Property_Volume_Score:            0.000000
##########               desc_VOS_geometric_vo:            0.000000
##########                desc_VOS_hvy_atom_vo:            0.000000
##########            desc_VOS_pos_chrg_atm_vo:            0.000000
##########            desc_VOS_neg_chrg_atm_vo:            0.000000
##########         desc_VOS_hydrophobic_atm_vo:            0.000000
##########         desc_VOS_hydrophilic_atm_vo:            0.000000
##########           Internal_energy_repulsive:            6.089965

@<TRIPOS>MOLECULE
111
 24 24 1 0 0
SMALL
GASTEIGER


@<TRIPOS>ATOM
      1 O          23.8553   14.5632   43.8399 O.2     1  UNL1       -0.2458
      2 C          22.9867   13.7631   44.1165 C.2     1  UNL1        0.3296
      3 O          22.1395   13.9910   45.0891 O.3     1  UNL1       -0.4775
      4 C          22.8111   12.5120   43.3347 C.2     1  UNL1        0.0229
      5 C          23.0191   12.2762   42.0286 C.2     1  UNL1       -0.0477
      6 C          22.8172   10.9889   41.3262 C.ar    1  UNL1       -0.0211
      7 C          22.4547    9.8277   42.0170 C.ar    1  UNL1       -0.0094
      8 C          23.0273   10.9259   39.9512 C.ar    1  UNL1       -0.0509
      9 C          22.3081    8.6078   41.3445 C.ar    1  UNL1        0.1590
     10 C          22.8825    9.7190   39.2745 C.ar    1  UNL1       -0.0158
     11 O          21.9564    7.4967   42.0654 O.3     1  UNL1       -0.5033
     12 C          22.5292    8.5537   39.9533 C.ar    1  UNL1        0.1613
     13 O          22.4332    7.4131   39.1636 O.3     1  UNL1       -0.4915
     14 C          22.7158    7.3267   37.7467 C.3     1  UNL1        0.0790
     15 H          21.7281   13.1608   45.3708 H       1  UNL1        0.2954
     16 H          22.4561   11.6614   43.9167 H       1  UNL1        0.0689
     17 H          23.3953   13.0832   41.4015 H       1  UNL1        0.0626
     18 H          22.2929    9.8741   43.0915 H       1  UNL1        0.0661
     19 H          23.3145   11.8186   39.4000 H       1  UNL1        0.0625
     20 H          23.0552    9.6826   38.2013 H       1  UNL1        0.0655
     21 H          21.6078    6.7897   41.4975 H       1  UNL1        0.2923
     22 H          22.4978    6.3118   37.4046 H       1  UNL1        0.0660
     23 H          23.7717    7.5489   37.5704 H       1  UNL1        0.0660
     24 H          22.0855    8.0359   37.2035 H       1  UNL1        0.0660
@<TRIPOS>BOND
     1     1     2    2
     2     2     3    1
     3     2     4    1
     4     4     5    2
     5     5     6    1
     6     6     7   ar
     7     6     8   ar
     8     7     9   ar
     9     8    10   ar
    10     9    11    1
    11     9    12   ar
    12    12    13    1
    13    13    14    1
    14    10    12   ar
    15     3    15    1
    16     4    16    1
    17     5    17    1
    18     7    18    1
    19     8    19    1
    20    10    20    1
    21    11    21    1
    22    14    22    1
    23    14    23    1
    24    14    24    1
@<TRIPOS>SUBSTRUCTURE
     1 UNL1        1 TEMP              0 ****  ****    0 ROOT


##########                                Name:                 112
##########                DOCK_Rotatable_Bonds:                   8
##########                         Heavy_Atoms:                  19
##########                    Molecular_Weight:             272.255
##########                       Formal_Charge:         5.96046e-08
##########                     HBond_Acceptors:                   7
##########                        HBond_Donors:                   5
##########                    Descriptor_Score:           28.338165
##########          Footprint_Similarity_Score:            5.779298
##########                 desc_FPS_vdw_energy:          -29.765718
##########                  desc_FPS_es_energy:           -3.766194
##########              desc_FPS_vdw+es_energy:          -33.531914
##########                  desc_FPS_num_hbond:                   1
##########                    desc_FPS_vdw_fps:            3.974406
##########                     desc_FPS_es_fps:            1.804892
##########                     desc_FPS_hb_fps:            1.000000
##########              desc_FPS_vdw_fp_numres:                 219
##########               desc_FPS_es_fp_numres:                 219
##########               desc_FPS_hb_fp_numres:                 219
##########                 Pharmacophore_Score:           20.000000
##########              desc_FMS_num_match_tot:                   0
##########              desc_FMS_max_match_ref:                  10
##########              desc_FMS_max_match_mol:                  14
##########                 desc_FMS_match_rate:            4.000000
##########                desc_FMS_match_resid:            0.000000
##########    desc_FMS_num_hydrophobic_matched:                   0
##########          desc_FMS_num_donor_matched:                   0
##########       desc_FMS_num_acceptor_matched:                   0
##########       desc_FMS_num_aromatic_matched:                   0
##########       desc_FMS_num_positive_matched:                   0
##########       desc_FMS_num_negative_matched:                   0
##########           desc_FMS_num_ring_matched:                   0
########## Hungarian_Matching_Similarity_Score:            2.828900
##########       desc_HMS_num_unmtchd_hvy_atms:                  26
##########           desc_HMS_num_ref_hvy_atms:                  23
##########        desc_HMS_rmsd_mtchd_hvy_atms:            2.176726
##########               Property_Volume_Score:            0.270033
##########               desc_VOS_geometric_vo:            0.472786
##########                desc_VOS_hvy_atom_vo:            0.475521
##########            desc_VOS_pos_chrg_atm_vo:            0.255676
##########            desc_VOS_neg_chrg_atm_vo:            0.253383
##########         desc_VOS_hydrophobic_atm_vo:            0.092866
##########         desc_VOS_hydrophilic_atm_vo:            0.069965
##########           Internal_energy_repulsive:            3.625083

@<TRIPOS>MOLECULE
112
 35 36 1 0 0
SMALL
GASTEIGER


@<TRIPOS>ATOM
      1 O          13.3292   12.2631   42.4804 O.3     1  UNL1       -0.3313
      2 C          14.5537   12.5916   43.1856 C.3     1  UNL1        0.2308
      3 C          12.2095   13.1653   42.6961 C.3     1  UNL1        0.1140
      4 O          15.0900   13.8759   42.7762 O.3     1  UNL1       -0.4608
      5 C          14.2818   12.6195   44.7084 C.3     1  UNL1        0.1454
      6 C          11.8337   13.1867   44.2011 C.3     1  UNL1        0.1120
      7 C          11.0330   12.6803   41.8182 C.3     1  UNL1        0.0731
      8 C          16.0827   14.0467   41.8293 C.ar    1  UNL1        0.1242
      9 O          15.4590   13.0830   45.3847 O.3     1  UNL1       -0.3829
     10 C          13.0599   13.5002   45.0856 C.3     1  UNL1        0.1152
     11 O          10.8543   14.2019   44.4434 O.3     1  UNL1       -0.3865
     12 O          11.5043   11.8556   40.7455 O.3     1  UNL1       -0.3924
     13 C          16.2990   13.1423   40.7842 C.ar    1  UNL1       -0.0164
     14 C          16.9087   15.1627   41.9581 C.ar    1  UNL1       -0.0164
     15 O          13.3652   14.8981   44.9965 O.3     1  UNL1       -0.3864
     16 C          17.3408   13.3562   39.8826 C.ar    1  UNL1       -0.0167
     17 C          17.9493   15.3750   41.0574 C.ar    1  UNL1       -0.0167
     18 C          18.1679   14.4705   40.0208 C.ar    1  UNL1        0.1171
     19 O          19.1934   14.6798   39.1485 O.3     1  UNL1       -0.5068
     20 H          15.3037   11.8200   42.9531 H       1  UNL1        0.1084
     21 H          12.5055   14.1699   42.3778 H       1  UNL1        0.0647
     22 H          14.0740   11.5966   45.0343 H       1  UNL1        0.0683
     23 H          11.4249   12.2134   44.4866 H       1  UNL1        0.0647
     24 H          10.5140   13.5478   41.4025 H       1  UNL1        0.0584
     25 H          10.3251   12.1135   42.4290 H       1  UNL1        0.0584
     26 H          16.0858   12.3313   45.4442 H       1  UNL1        0.2102
     27 H          12.7960   13.2827   46.1243 H       1  UNL1        0.0648
     28 H          11.3272   15.0570   44.3454 H       1  UNL1        0.2100
     29 H          12.0699   11.1566   41.1213 H       1  UNL1        0.2095
     30 H          15.6684   12.2661   40.6607 H       1  UNL1        0.0655
     31 H          16.7450   15.8678   42.7692 H       1  UNL1        0.0655
     32 H          14.0939   15.0601   45.6120 H       1  UNL1        0.2100
     33 H          17.5066   12.6467   39.0759 H       1  UNL1        0.0655
     34 H          18.5926   16.2449   41.1680 H       1  UNL1        0.0655
     35 H          19.2185   13.9689   38.4840 H       1  UNL1        0.2921
@<TRIPOS>BOND
     1     1     2    1
     2     1     3    1
     3     2     4    1
     4     2     5    1
     5     3     6    1
     6     3     7    1
     7     4     8    1
     8     5     9    1
     9     5    10    1
    10     6    11    1
    11     7    12    1
    12     8    13   ar
    13     8    14   ar
    14    10    15    1
    15    13    16   ar
    16    14    17   ar
    17    16    18   ar
    18    18    19    1
    19     6    10    1
    20    17    18   ar
    21     2    20    1
    22     3    21    1
    23     5    22    1
    24     6    23    1
    25     7    24    1
    26     7    25    1
    27     9    26    1
    28    10    27    1
    29    11    28    1
    30    12    29    1
    31    13    30    1
    32    14    31    1
    33    15    32    1
    34    16    33    1
    35    17    34    1
    36    19    35    1
@<TRIPOS>SUBSTRUCTURE
     1 UNL1        1 TEMP              0 ****  ****    0 ROOT


##########                                Name:                 112
##########                DOCK_Rotatable_Bonds:                   8
##########                         Heavy_Atoms:                  19
##########                    Molecular_Weight:             272.255
##########                       Formal_Charge:         5.96046e-08
##########                     HBond_Acceptors:                   7
##########                        HBond_Donors:                   5
##########                    Descriptor_Score:           13.775590
##########          Footprint_Similarity_Score:            5.147418
##########                 desc_FPS_vdw_energy:          -29.113522
##########                  desc_FPS_es_energy:           -3.864190
##########              desc_FPS_vdw+es_energy:          -32.977711
##########                  desc_FPS_num_hbond:                   1
##########                    desc_FPS_vdw_fps:            4.077147
##########                     desc_FPS_es_fps:            1.070272
##########                     desc_FPS_hb_fps:            1.000000
##########              desc_FPS_vdw_fp_numres:                 219
##########               desc_FPS_es_fp_numres:                 219
##########               desc_FPS_hb_fp_numres:                 219
##########                 Pharmacophore_Score:            6.349873
##########              desc_FMS_num_match_tot:                   1
##########              desc_FMS_max_match_ref:                  10
##########              desc_FMS_max_match_mol:                  14
##########                 desc_FMS_match_rate:            0.900000
##########                desc_FMS_match_resid:            1.849873
##########    desc_FMS_num_hydrophobic_matched:                   0
##########          desc_FMS_num_donor_matched:                   0
##########       desc_FMS_num_acceptor_matched:                   1
##########       desc_FMS_num_aromatic_matched:                   0
##########       desc_FMS_num_positive_matched:                   0
##########       desc_FMS_num_negative_matched:                   0
##########           desc_FMS_num_ring_matched:                   0
########## Hungarian_Matching_Similarity_Score:            2.576971
##########       desc_HMS_num_unmtchd_hvy_atms:                  26
##########           desc_HMS_num_ref_hvy_atms:                  23
##########        desc_HMS_rmsd_mtchd_hvy_atms:            1.924797
##########               Property_Volume_Score:            0.298673
##########               desc_VOS_geometric_vo:            0.494438
##########                desc_VOS_hvy_atom_vo:            0.503059
##########            desc_VOS_pos_chrg_atm_vo:            0.291061
##########            desc_VOS_neg_chrg_atm_vo:            0.264206
##########         desc_VOS_hydrophobic_atm_vo:            0.096983
##########         desc_VOS_hydrophilic_atm_vo:            0.142289
##########           Internal_energy_repulsive:            4.377420

@<TRIPOS>MOLECULE
112
 35 36 1 0 0
SMALL
GASTEIGER


@<TRIPOS>ATOM
      1 O          13.6854   11.9455   42.6037 O.3     1  UNL1       -0.3313
      2 C          14.7249   12.5695   43.4004 C.3     1  UNL1        0.2308
      3 C          12.4289   12.6719   42.5160 C.3     1  UNL1        0.1140
      4 O          15.1303   13.8525   42.8580 O.3     1  UNL1       -0.4608
      5 C          14.2164   12.7705   44.8477 C.3     1  UNL1        0.1454
      6 C          11.8226   12.8467   43.9332 C.3     1  UNL1        0.1120
      7 C          11.4858   11.8782   41.5829 C.3     1  UNL1        0.0731
      8 C          16.1150   14.0257   41.9031 C.ar    1  UNL1        0.1242
      9 O          15.1949   13.5143   45.5875 O.3     1  UNL1       -0.3829
     10 C          12.8376   13.4822   44.9080 C.3     1  UNL1        0.1152
     11 O          10.6828   13.7103   43.8714 O.3     1  UNL1       -0.3865
     12 O          11.0317   10.6775   42.2194 O.3     1  UNL1       -0.3924
     13 C          16.2864   13.1541   40.8224 C.ar    1  UNL1       -0.0164
     14 C          16.9794   15.1084   42.0602 C.ar    1  UNL1       -0.0164
     15 O          12.9510   14.8839   44.6290 O.3     1  UNL1       -0.3864
     16 C          17.3221   13.3670   39.9136 C.ar    1  UNL1       -0.0167
     17 C          18.0139   15.3198   41.1523 C.ar    1  UNL1       -0.0167
     18 C          18.1878   14.4476   40.0800 C.ar    1  UNL1        0.1171
     19 O          19.2075   14.6555   39.2006 O.3     1  UNL1       -0.5068
     20 H          15.6041   11.9071   43.4009 H       1  UNL1        0.1084
     21 H          12.6251   13.6553   42.0772 H       1  UNL1        0.0647
     22 H          14.1078   11.7849   45.3086 H       1  UNL1        0.0683
     23 H          11.5169   11.8705   44.3198 H       1  UNL1        0.0647
     24 H          12.0227   11.6179   40.6670 H       1  UNL1        0.0584
     25 H          10.6245   12.4963   41.3152 H       1  UNL1        0.0584
     26 H          14.8752   13.5939   46.5110 H       1  UNL1        0.2102
     27 H          12.4479   13.3755   45.9240 H       1  UNL1        0.0648
     28 H          10.1094   13.4488   44.6246 H       1  UNL1        0.2100
     29 H          11.8012   10.2311   42.6173 H       1  UNL1        0.2095
     30 H          15.6253   12.3043   40.6764 H       1  UNL1        0.0655
     31 H          16.8505   15.7879   42.8990 H       1  UNL1        0.0655
     32 H          13.7212   15.2007   45.1214 H       1  UNL1        0.2100
     33 H          17.4531   12.6830   39.0790 H       1  UNL1        0.0655
     34 H          18.6873   16.1633   41.2850 H       1  UNL1        0.0655
     35 H          19.2064   13.9630   38.5165 H       1  UNL1        0.2921
@<TRIPOS>BOND
     1     1     2    1
     2     1     3    1
     3     2     4    1
     4     2     5    1
     5     3     6    1
     6     3     7    1
     7     4     8    1
     8     5     9    1
     9     5    10    1
    10     6    11    1
    11     7    12    1
    12     8    13   ar
    13     8    14   ar
    14    10    15    1
    15    13    16   ar
    16    14    17   ar
    17    16    18   ar
    18    18    19    1
    19     6    10    1
    20    17    18   ar
    21     2    20    1
    22     3    21    1
    23     5    22    1
    24     6    23    1
    25     7    24    1
    26     7    25    1
    27     9    26    1
    28    10    27    1
    29    11    28    1
    30    12    29    1
    31    13    30    1
    32    14    31    1
    33    15    32    1
    34    16    33    1
    35    17    34    1
    36    19    35    1
@<TRIPOS>SUBSTRUCTURE
     1 UNL1        1 TEMP              0 ****  ****    0 ROOT


##########                                Name:                 112
##########                DOCK_Rotatable_Bonds:                   8
##########                         Heavy_Atoms:                  19
##########                    Molecular_Weight:             272.255
##########                       Formal_Charge:         5.96046e-08
##########                     HBond_Acceptors:                   7
##########                        HBond_Donors:                   5
##########                    Descriptor_Score:           28.173098
##########          Footprint_Similarity_Score:            5.736714
##########                 desc_FPS_vdw_energy:          -29.937271
##########                  desc_FPS_es_energy:           -3.639368
##########              desc_FPS_vdw+es_energy:          -33.576637
##########                  desc_FPS_num_hbond:                   2
##########                    desc_FPS_vdw_fps:            4.126753
##########                     desc_FPS_es_fps:            1.609961
##########                     desc_FPS_hb_fps:            1.414214
##########              desc_FPS_vdw_fp_numres:                 219
##########               desc_FPS_es_fp_numres:                 219
##########               desc_FPS_hb_fp_numres:                 219
##########                 Pharmacophore_Score:           20.000000
##########              desc_FMS_num_match_tot:                   0
##########              desc_FMS_max_match_ref:                  10
##########              desc_FMS_max_match_mol:                  14
##########                 desc_FMS_match_rate:            4.000000
##########                desc_FMS_match_resid:            0.000000
##########    desc_FMS_num_hydrophobic_matched:                   0
##########          desc_FMS_num_donor_matched:                   0
##########       desc_FMS_num_acceptor_matched:                   0
##########       desc_FMS_num_aromatic_matched:                   0
##########       desc_FMS_num_positive_matched:                   0
##########       desc_FMS_num_negative_matched:                   0
##########           desc_FMS_num_ring_matched:                   0
########## Hungarian_Matching_Similarity_Score:            2.714953
##########       desc_HMS_num_unmtchd_hvy_atms:                  26
##########           desc_HMS_num_ref_hvy_atms:                  23
##########        desc_HMS_rmsd_mtchd_hvy_atms:            2.062779
##########               Property_Volume_Score:            0.278571
##########               desc_VOS_geometric_vo:            0.478834
##########                desc_VOS_hvy_atom_vo:            0.488903
##########            desc_VOS_pos_chrg_atm_vo:            0.266696
##########            desc_VOS_neg_chrg_atm_vo:            0.264154
##########         desc_VOS_hydrophobic_atm_vo:            0.099032
##########         desc_VOS_hydrophilic_atm_vo:            0.073807
##########           Internal_energy_repulsive:            3.488986

@<TRIPOS>MOLECULE
112
 35 36 1 0 0
SMALL
GASTEIGER


@<TRIPOS>ATOM
      1 O          13.1380   12.1017   42.4405 O.3     1  UNL1       -0.3313
      2 C          14.2564   12.6326   43.1968 C.3     1  UNL1        0.2308
      3 C          11.9277   12.9076   42.4445 C.3     1  UNL1        0.1140
      4 O          14.7137   13.9052   42.6715 O.3     1  UNL1       -0.4608
      5 C          13.8399   12.8164   44.6754 C.3     1  UNL1        0.1454
      6 C          11.4105   13.0724   43.8978 C.3     1  UNL1        0.1120
      7 C          10.8872   12.2060   41.5417 C.3     1  UNL1        0.0731
      8 C          15.7855   14.0607   41.8121 C.ar    1  UNL1        0.1242
      9 O          14.9022   13.4725   45.3819 O.3     1  UNL1       -0.3829
     10 C          12.5148   13.6103   44.8334 C.3     1  UNL1        0.1152
     11 O          10.3268   14.0070   43.9252 O.3     1  UNL1       -0.3865
     12 O          11.5349   11.4195   40.5343 O.3     1  UNL1       -0.3924
     13 C          16.1501   13.0928   40.8703 C.ar    1  UNL1       -0.0164
     14 C          16.5366   15.2299   41.9263 C.ar    1  UNL1       -0.0164
     15 O          12.7028   15.0107   44.5908 O.3     1  UNL1       -0.3864
     16 C          17.2639   13.2975   40.0569 C.ar    1  UNL1       -0.0167
     17 C          17.6492   15.4330   41.1139 C.ar    1  UNL1       -0.0167
     18 C          18.0154   14.4657   40.1807 C.ar    1  UNL1        0.1171
     19 O          19.1103   14.6672   39.3953 O.3     1  UNL1       -0.5068
     20 H          15.0901   11.9170   43.1287 H       1  UNL1        0.1084
     21 H          12.1629   13.8910   42.0252 H       1  UNL1        0.0647
     22 H          13.6931   11.8245   45.1119 H       1  UNL1        0.0683
     23 H          11.0639   12.1048   44.2712 H       1  UNL1        0.0647
     24 H          10.2622   12.9624   41.0597 H       1  UNL1        0.0584
     25 H          10.2450   11.5624   42.1489 H       1  UNL1        0.0584
     26 H          15.6770   12.8716   45.3831 H       1  UNL1        0.2102
     27 H          12.1739   13.4942   45.8659 H       1  UNL1        0.0648
     28 H          10.7418   14.8968   43.9004 H       1  UNL1        0.2100
     29 H          12.2230   11.9663   40.1132 H       1  UNL1        0.2095
     30 H          15.5804   12.1742   40.7601 H       1  UNL1        0.0655
     31 H          16.2575   15.9845   42.6575 H       1  UNL1        0.0655
     32 H          13.2614   15.3414   45.3081 H       1  UNL1        0.2100
     33 H          17.5449   12.5390   39.3307 H       1  UNL1        0.0655
     34 H          18.2332   16.3450   41.2130 H       1  UNL1        0.0655
     35 H          19.2685   13.8875   38.8345 H       1  UNL1        0.2921
@<TRIPOS>BOND
     1     1     2    1
     2     1     3    1
     3     2     4    1
     4     2     5    1
     5     3     6    1
     6     3     7    1
     7     4     8    1
     8     5     9    1
     9     5    10    1
    10     6    11    1
    11     7    12    1
    12     8    13   ar
    13     8    14   ar
    14    10    15    1
    15    13    16   ar
    16    14    17   ar
    17    16    18   ar
    18    18    19    1
    19     6    10    1
    20    17    18   ar
    21     2    20    1
    22     3    21    1
    23     5    22    1
    24     6    23    1
    25     7    24    1
    26     7    25    1
    27     9    26    1
    28    10    27    1
    29    11    28    1
    30    12    29    1
    31    13    30    1
    32    14    31    1
    33    15    32    1
    34    16    33    1
    35    17    34    1
    36    19    35    1
@<TRIPOS>SUBSTRUCTURE
     1 UNL1        1 TEMP              0 ****  ****    0 ROOT


##########                                Name:                 113
##########                DOCK_Rotatable_Bonds:                  11
##########                         Heavy_Atoms:                  32
##########                    Molecular_Weight:             448.383
##########                       Formal_Charge:        -3.57628e-07
##########                     HBond_Acceptors:                  11
##########                        HBond_Donors:                   7
##########                    Descriptor_Score:           16.174070
##########          Footprint_Similarity_Score:            6.717768
##########                 desc_FPS_vdw_energy:          -38.449253
##########                  desc_FPS_es_energy:           -3.301814
##########              desc_FPS_vdw+es_energy:          -41.751068
##########                  desc_FPS_num_hbond:                   4
##########                    desc_FPS_vdw_fps:            4.729213
##########                     desc_FPS_es_fps:            1.988555
##########                     desc_FPS_hb_fps:            2.000000
##########              desc_FPS_vdw_fp_numres:                 219
##########               desc_FPS_es_fp_numres:                 219
##########               desc_FPS_hb_fp_numres:                 219
##########                 Pharmacophore_Score:            5.160372
##########              desc_FMS_num_match_tot:                   2
##########              desc_FMS_max_match_ref:                  10
##########              desc_FMS_max_match_mol:                  22
##########                 desc_FMS_match_rate:            0.800000
##########                desc_FMS_match_resid:            1.160372
##########    desc_FMS_num_hydrophobic_matched:                   0
##########          desc_FMS_num_donor_matched:                   1
##########       desc_FMS_num_acceptor_matched:                   1
##########       desc_FMS_num_aromatic_matched:                   0
##########       desc_FMS_num_positive_matched:                   0
##########       desc_FMS_num_negative_matched:                   0
##########           desc_FMS_num_ring_matched:                   0
########## Hungarian_Matching_Similarity_Score:            4.535013
##########       desc_HMS_num_unmtchd_hvy_atms:                  19
##########           desc_HMS_num_ref_hvy_atms:                  23
##########        desc_HMS_rmsd_mtchd_hvy_atms:            5.404578
##########               Property_Volume_Score:            0.239082
##########               desc_VOS_geometric_vo:            0.477469
##########                desc_VOS_hvy_atom_vo:            0.426941
##########            desc_VOS_pos_chrg_atm_vo:            0.170138
##########            desc_VOS_neg_chrg_atm_vo:            0.091025
##########         desc_VOS_hydrophobic_atm_vo:            0.161057
##########         desc_VOS_hydrophilic_atm_vo:            0.107862
##########           Internal_energy_repulsive:            8.545257

@<TRIPOS>MOLECULE
113
 52 55 1 0 0
SMALL
GASTEIGER


@<TRIPOS>ATOM
      1 O          18.7444   14.7809   45.0326 O.2     1  UNL1       -0.2869
      2 C          18.1012   14.6330   44.0109 C.ar    1  UNL1        0.1966
      3 C          16.7170   14.1272   43.9636 C.ar    1  UNL1        0.1055
      4 C          18.6448   14.9180   42.6630 C.ar    1  UNL1        0.0288
      5 C          16.1766   14.0105   42.6998 C.ar    1  UNL1        0.1462
      6 C          15.9010   13.7421   45.0947 C.ar    1  UNL1        0.1347
      7 C          18.0172   14.7708   41.7390 C.ar    1  UNL1        0.1393
      8 O          16.9679   14.3825   41.6144 O.2     1  UNL1       -0.4544
      9 C          14.8728   13.4046   42.5290 C.ar    1  UNL1        0.0235
     10 O          16.3809   13.8210   46.3652 O.3     1  UNL1       -0.5058
     11 C          14.6277   13.2183   44.9159 C.ar    1  UNL1        0.0226
     12 C          18.6160   15.3582   40.4923 C.ar    1  UNL1        0.0211
     13 C          14.1143   13.0092   43.6348 C.ar    1  UNL1        0.1310
     14 C          19.7211   14.7483   39.8680 C.ar    1  UNL1       -0.0059
     15 C          18.0333   16.4911   39.8939 C.ar    1  UNL1       -0.0474
     16 O          12.9013   12.3551   43.4348 O.3     1  UNL1       -0.4606
     17 C          20.2247   15.2673   38.6734 C.ar    1  UNL1        0.1589
     18 C          18.5493   17.0029   38.7042 C.ar    1  UNL1       -0.0159
     19 C          12.2122   12.3405   42.1444 C.3     1  UNL1        0.2308
     20 O          21.2811   14.6804   38.0351 O.3     1  UNL1       -0.5033
     21 C          19.6415   16.3910   38.0961 C.ar    1  UNL1        0.1583
     22 O          11.8508   13.6849   41.7209 O.3     1  UNL1       -0.3313
     23 C          10.9075   11.5151   42.2234 C.3     1  UNL1        0.1454
     24 O          20.1516   16.8654   36.9257 O.3     1  UNL1       -0.5033
     25 C          11.0078   14.4180   42.6477 C.3     1  UNL1        0.1140
     26 O          11.1886   10.1574   42.5894 O.3     1  UNL1       -0.3829
     27 C           9.9139   12.1778   43.2122 C.3     1  UNL1        0.1152
     28 C           9.6652   13.6622   42.8415 C.3     1  UNL1        0.1120
     29 C          10.8610   15.8796   42.1544 C.3     1  UNL1        0.0731
     30 O           8.6514   11.5194   43.1390 O.3     1  UNL1       -0.3864
     31 O           8.8578   13.7120   41.6564 O.3     1  UNL1       -0.3865
     32 O          10.8183   15.9800   40.7240 O.3     1  UNL1       -0.3924
     33 H          19.6756   15.2641   42.6569 H       1  UNL1        0.0693
     34 H          14.5043   13.2292   41.5216 H       1  UNL1        0.0691
     35 H          17.3190   14.0817   46.3093 H       1  UNL1        0.2922
     36 H          14.0610   12.9392   45.7995 H       1  UNL1        0.0691
     37 H          20.1757   13.8624   40.3047 H       1  UNL1        0.0662
     38 H          17.1705   16.9725   40.3480 H       1  UNL1        0.0626
     39 H          18.0916   17.8764   38.2453 H       1  UNL1        0.0655
     40 H          12.8910   11.9107   41.3907 H       1  UNL1        0.1084
     41 H          21.4636   13.8083   38.4168 H       1  UNL1        0.2923
     42 H          10.4554   11.5063   41.2274 H       1  UNL1        0.0683
     43 H          20.9004   16.2740   36.6879 H       1  UNL1        0.2923
     44 H          11.5166   14.4519   43.6154 H       1  UNL1        0.0647
     45 H          11.4032   10.1103   43.5372 H       1  UNL1        0.2102
     46 H          10.3110   12.1103   44.2288 H       1  UNL1        0.0648
     47 H           9.1094   14.1351   43.6562 H       1  UNL1        0.0647
     48 H          11.7134   16.4599   42.5186 H       1  UNL1        0.0584
     49 H           9.9488   16.3130   42.5730 H       1  UNL1        0.0584
     50 H           8.7226   10.8076   43.8119 H       1  UNL1        0.2100
     51 H           9.3309   13.2278   40.9554 H       1  UNL1        0.2100
     52 H           9.9519   16.3268   40.4438 H       1  UNL1        0.2095
@<TRIPOS>BOND
     1     1     2    2
     2     2     3   ar
     3     2     4   ar
     4     3     5   ar
     5     3     6   ar
     6     4     7   ar
     7     5     8   ar
     8     5     9   ar
     9     6    10    1
    10     6    11   ar
    11     7    12    1
    12     9    13   ar
    13    12    14   ar
    14    12    15   ar
    15    13    16    1
    16    14    17   ar
    17    15    18   ar
    18    16    19    1
    19    17    20    1
    20    17    21   ar
    21    19    22    1
    22    19    23    1
    23    21    24    1
    24    22    25    1
    25    23    26    1
    26    23    27    1
    27    25    28    1
    28    25    29    1
    29    27    30    1
    30    28    31    1
    31    29    32    1
    32     7     8   ar
    33    11    13   ar
    34    18    21   ar
    35    27    28    1
    36     4    33    1
    37     9    34    1
    38    10    35    1
    39    11    36    1
    40    14    37    1
    41    15    38    1
    42    18    39    1
    43    19    40    1
    44    20    41    1
    45    23    42    1
    46    24    43    1
    47    25    44    1
    48    26    45    1
    49    27    46    1
    50    28    47    1
    51    29    48    1
    52    29    49    1
    53    30    50    1
    54    31    51    1
    55    32    52    1
@<TRIPOS>SUBSTRUCTURE
     1 UNL1        1 TEMP              0 ****  ****    0 ROOT


##########                                Name:                 113
##########                DOCK_Rotatable_Bonds:                  11
##########                         Heavy_Atoms:                  32
##########                    Molecular_Weight:             448.383
##########                       Formal_Charge:        -3.57628e-07
##########                     HBond_Acceptors:                  11
##########                        HBond_Donors:                   7
##########                    Descriptor_Score:           17.588110
##########          Footprint_Similarity_Score:            9.244940
##########                 desc_FPS_vdw_energy:          -34.164734
##########                  desc_FPS_es_energy:           -5.083066
##########              desc_FPS_vdw+es_energy:          -39.247799
##########                  desc_FPS_num_hbond:                   5
##########                    desc_FPS_vdw_fps:            7.219768
##########                     desc_FPS_es_fps:            2.025171
##########                     desc_FPS_hb_fps:            3.000000
##########              desc_FPS_vdw_fp_numres:                 219
##########               desc_FPS_es_fp_numres:                 219
##########               desc_FPS_hb_fp_numres:                 219
##########                 Pharmacophore_Score:            5.796672
##########              desc_FMS_num_match_tot:                   1
##########              desc_FMS_max_match_ref:                  10
##########              desc_FMS_max_match_mol:                  22
##########                 desc_FMS_match_rate:            0.900000
##########                desc_FMS_match_resid:            1.296672
##########    desc_FMS_num_hydrophobic_matched:                   0
##########          desc_FMS_num_donor_matched:                   0
##########       desc_FMS_num_acceptor_matched:                   1
##########       desc_FMS_num_aromatic_matched:                   0
##########       desc_FMS_num_positive_matched:                   0
##########       desc_FMS_num_negative_matched:                   0
##########           desc_FMS_num_ring_matched:                   0
########## Hungarian_Matching_Similarity_Score:            2.772622
##########       desc_HMS_num_unmtchd_hvy_atms:                  19
##########           desc_HMS_num_ref_hvy_atms:                  23
##########        desc_HMS_rmsd_mtchd_hvy_atms:            3.642187
##########               Property_Volume_Score:            0.226124
##########               desc_VOS_geometric_vo:            0.386969
##########                desc_VOS_hvy_atom_vo:            0.337579
##########            desc_VOS_pos_chrg_atm_vo:            0.147441
##########            desc_VOS_neg_chrg_atm_vo:            0.183264
##########         desc_VOS_hydrophobic_atm_vo:            0.232125
##########         desc_VOS_hydrophilic_atm_vo:            0.069363
##########           Internal_energy_repulsive:            7.958433

@<TRIPOS>MOLECULE
113
 52 55 1 0 0
SMALL
GASTEIGER


@<TRIPOS>ATOM
      1 O          10.8063    9.8066   42.8151 O.2     1  UNL1       -0.2869
      2 C          10.6810   10.9667   43.1587 C.ar    1  UNL1        0.1966
      3 C           9.3934   11.6017   43.4947 C.ar    1  UNL1        0.1055
      4 C          11.8184   11.9102   43.2556 C.ar    1  UNL1        0.0288
      5 C           9.4675   12.9361   43.8362 C.ar    1  UNL1        0.1462
      6 C           8.0924   10.9687   43.4873 C.ar    1  UNL1        0.1347
      7 C          11.6633   12.9779   43.5801 C.ar    1  UNL1        0.1393
      8 O          10.7235   13.5402   43.8409 O.2     1  UNL1       -0.4544
      9 C           8.2512   13.6892   44.0595 C.ar    1  UNL1        0.0235
     10 O           7.9511    9.6593   43.1463 O.3     1  UNL1       -0.5058
     11 C           6.9403   11.6929   43.7632 C.ar    1  UNL1        0.0226
     12 C          12.9359   13.7156   43.8870 C.ar    1  UNL1        0.0211
     13 C           7.0014   13.0644   44.0152 C.ar    1  UNL1        0.1310
     14 C          13.8687   13.1919   44.8027 C.ar    1  UNL1       -0.0059
     15 C          13.2422   14.9098   43.2079 C.ar    1  UNL1       -0.0474
     16 O           5.8471   13.8311   44.1525 O.3     1  UNL1       -0.4606
     17 C          15.0769   13.8550   45.0275 C.ar    1  UNL1        0.1589
     18 C          14.4496   15.5651   43.4458 C.ar    1  UNL1       -0.0159
     19 C           4.5029   13.2728   44.0053 C.3     1  UNL1        0.2308
     20 O          16.0092   13.3555   45.8931 O.3     1  UNL1       -0.5033
     21 C          15.3640   15.0375   44.3527 C.ar    1  UNL1        0.1583
     22 O           4.1762   13.0380   42.6069 O.3     1  UNL1       -0.3313
     23 C           3.4375   14.2391   44.5722 C.3     1  UNL1        0.1454
     24 O          16.5558   15.6533   44.5883 O.3     1  UNL1       -0.5033
     25 C           4.2493   14.2083   41.7513 C.3     1  UNL1        0.1140
     26 O           3.6649   14.4815   45.9671 O.3     1  UNL1       -0.3829
     27 C           3.4254   15.5591   43.7589 C.3     1  UNL1        0.1152
     28 C           3.2397   15.2798   42.2456 C.3     1  UNL1        0.1120
     29 C           4.0587   13.7727   40.2765 C.3     1  UNL1        0.0731
     30 O           2.3215   16.3646   44.1660 O.3     1  UNL1       -0.3864
     31 O           1.8838   14.8705   42.0155 O.3     1  UNL1       -0.3865
     32 O           4.9375   12.7044   39.8963 O.3     1  UNL1       -0.3924
     33 H          12.7815   11.4841   42.9847 H       1  UNL1        0.0693
     34 H           8.3219   14.7604   44.2294 H       1  UNL1        0.0691
     35 H           6.9986    9.4513   43.1678 H       1  UNL1        0.2922
     36 H           5.9889   11.1694   43.7371 H       1  UNL1        0.0691
     37 H          13.6590   12.2619   45.3254 H       1  UNL1        0.0662
     38 H          12.5455   15.3279   42.4853 H       1  UNL1        0.0626
     39 H          14.6815   16.4855   42.9146 H       1  UNL1        0.0655
     40 H           4.4651   12.3085   44.5365 H       1  UNL1        0.1084
     41 H          15.6416   12.6099   46.3915 H       1  UNL1        0.2923
     42 H           2.4606   13.7576   44.4712 H       1  UNL1        0.0683
     43 H          16.5268   16.5103   44.1070 H       1  UNL1        0.2923
     44 H           5.2550   14.6297   41.8376 H       1  UNL1        0.0647
     45 H           2.9717   15.0684   46.3158 H       1  UNL1        0.2102
     46 H           4.3618   16.0988   43.9250 H       1  UNL1        0.0648
     47 H           3.4160   16.2093   41.6967 H       1  UNL1        0.0647
     48 H           4.2551   14.6318   39.6289 H       1  UNL1        0.0584
     49 H           3.0229   13.4586   40.1229 H       1  UNL1        0.0584
     50 H           1.5453   15.7784   44.0302 H       1  UNL1        0.2100
     51 H           1.3005   15.5648   42.3727 H       1  UNL1        0.2100
     52 H           4.7804   12.4642   38.9652 H       1  UNL1        0.2095
@<TRIPOS>BOND
     1     1     2    2
     2     2     3   ar
     3     2     4   ar
     4     3     5   ar
     5     3     6   ar
     6     4     7   ar
     7     5     8   ar
     8     5     9   ar
     9     6    10    1
    10     6    11   ar
    11     7    12    1
    12     9    13   ar
    13    12    14   ar
    14    12    15   ar
    15    13    16    1
    16    14    17   ar
    17    15    18   ar
    18    16    19    1
    19    17    20    1
    20    17    21   ar
    21    19    22    1
    22    19    23    1
    23    21    24    1
    24    22    25    1
    25    23    26    1
    26    23    27    1
    27    25    28    1
    28    25    29    1
    29    27    30    1
    30    28    31    1
    31    29    32    1
    32     7     8   ar
    33    11    13   ar
    34    18    21   ar
    35    27    28    1
    36     4    33    1
    37     9    34    1
    38    10    35    1
    39    11    36    1
    40    14    37    1
    41    15    38    1
    42    18    39    1
    43    19    40    1
    44    20    41    1
    45    23    42    1
    46    24    43    1
    47    25    44    1
    48    26    45    1
    49    27    46    1
    50    28    47    1
    51    29    48    1
    52    29    49    1
    53    30    50    1
    54    31    51    1
    55    32    52    1
@<TRIPOS>SUBSTRUCTURE
     1 UNL1        1 TEMP              0 ****  ****    0 ROOT


##########                                Name:                 113
##########                DOCK_Rotatable_Bonds:                  11
##########                         Heavy_Atoms:                  32
##########                    Molecular_Weight:             448.383
##########                       Formal_Charge:        -3.57628e-07
##########                     HBond_Acceptors:                  11
##########                        HBond_Donors:                   7
##########                    Descriptor_Score:           31.324282
##########          Footprint_Similarity_Score:            6.589827
##########                 desc_FPS_vdw_energy:          -36.411533
##########                  desc_FPS_es_energy:           -3.298133
##########              desc_FPS_vdw+es_energy:          -39.709667
##########                  desc_FPS_num_hbond:                   2
##########                    desc_FPS_vdw_fps:            5.073170
##########                     desc_FPS_es_fps:            1.516658
##########                     desc_FPS_hb_fps:            1.414214
##########              desc_FPS_vdw_fp_numres:                 219
##########               desc_FPS_es_fp_numres:                 219
##########               desc_FPS_hb_fp_numres:                 219
##########                 Pharmacophore_Score:           20.000000
##########              desc_FMS_num_match_tot:                   0
##########              desc_FMS_max_match_ref:                  10
##########              desc_FMS_max_match_mol:                  22
##########                 desc_FMS_match_rate:            4.000000
##########                desc_FMS_match_resid:            0.000000
##########    desc_FMS_num_hydrophobic_matched:                   0
##########          desc_FMS_num_donor_matched:                   0
##########       desc_FMS_num_acceptor_matched:                   0
##########       desc_FMS_num_aromatic_matched:                   0
##########       desc_FMS_num_positive_matched:                   0
##########       desc_FMS_num_negative_matched:                   0
##########           desc_FMS_num_ring_matched:                   0
########## Hungarian_Matching_Similarity_Score:            4.929447
##########       desc_HMS_num_unmtchd_hvy_atms:                  19
##########           desc_HMS_num_ref_hvy_atms:                  23
##########        desc_HMS_rmsd_mtchd_hvy_atms:            5.799012
##########               Property_Volume_Score:            0.194991
##########               desc_VOS_geometric_vo:            0.407306
##########                desc_VOS_hvy_atom_vo:            0.356193
##########            desc_VOS_pos_chrg_atm_vo:            0.136043
##########            desc_VOS_neg_chrg_atm_vo:            0.159829
##########         desc_VOS_hydrophobic_atm_vo:            0.052003
##########         desc_VOS_hydrophilic_atm_vo:            0.058572
##########           Internal_energy_repulsive:            6.827343

@<TRIPOS>MOLECULE
113
 52 55 1 0 0
SMALL
GASTEIGER


@<TRIPOS>ATOM
      1 O           7.5934    9.2245   43.4702 O.2     1  UNL1       -0.2869
      2 C           7.4831   10.4332   43.5501 C.ar    1  UNL1        0.1966
      3 C           8.6039   11.3825   43.4205 C.ar    1  UNL1        0.1055
      4 C           6.1955   11.1130   43.8212 C.ar    1  UNL1        0.0288
      5 C           8.2681   12.7122   43.5688 C.ar    1  UNL1        0.1462
      6 C           9.9896   11.0509   43.1693 C.ar    1  UNL1        0.1347
      7 C           6.1322   12.2359   43.8858 C.ar    1  UNL1        0.1393
      8 O           6.9316   13.0251   43.8112 O.2     1  UNL1       -0.4544
      9 C           9.3090   13.7183   43.5881 C.ar    1  UNL1        0.0235
     10 O          10.3869    9.7575   43.0273 O.3     1  UNL1       -0.5058
     11 C          10.9677   12.0356   43.1310 C.ar    1  UNL1        0.0226
     12 C           4.7280   12.7706   43.8923 C.ar    1  UNL1        0.0211
     13 C          10.6466   13.3718   43.3758 C.ar    1  UNL1        0.1310
     14 C           3.9921   12.8467   45.0905 C.ar    1  UNL1       -0.0059
     15 C           4.1550   13.2671   42.7065 C.ar    1  UNL1       -0.0474
     16 O          11.6327   14.3494   43.4822 O.3     1  UNL1       -0.4606
     17 C           2.7133   13.4076   45.0921 C.ar    1  UNL1        0.1589
     18 C           2.8750   13.8194   42.7206 C.ar    1  UNL1       -0.0159
     19 C          12.7528   14.4500   42.5466 C.3     1  UNL1        0.2308
     20 O           1.9878   13.5149   46.2454 O.3     1  UNL1       -0.5033
     21 C           2.1576   13.8899   43.9112 C.ar    1  UNL1        0.1583
     22 O          13.7875   13.4732   42.8508 O.3     1  UNL1       -0.3313
     23 C          13.4055   15.8498   42.6139 C.3     1  UNL1        0.1454
     24 O           0.9120   14.4395   43.9501 O.3     1  UNL1       -0.5033
     25 C          14.3402   13.5568   44.1904 C.3     1  UNL1        0.1140
     26 O          12.4547   16.8686   42.2758 O.3     1  UNL1       -0.3829
     27 C          14.0200   16.0870   44.0175 C.3     1  UNL1        0.1152
     28 C          15.0000   14.9474   44.3967 C.3     1  UNL1        0.1120
     29 C          15.2854   12.3518   44.4267 C.3     1  UNL1        0.0731
     30 O          14.7774   17.2950   44.0130 O.3     1  UNL1       -0.3864
     31 O          16.1929   15.0852   43.6113 O.3     1  UNL1       -0.3865
     32 O          14.6969   11.1019   44.0402 O.3     1  UNL1       -0.3924
     33 H           5.3506   10.4412   43.9536 H       1  UNL1        0.0693
     34 H           9.0383   14.7484   43.8052 H       1  UNL1        0.0691
     35 H          11.3341    9.7145   43.2552 H       1  UNL1        0.2922
     36 H          11.9935   11.7303   42.9455 H       1  UNL1        0.0691
     37 H           4.4227   12.4842   46.0207 H       1  UNL1        0.0662
     38 H           4.7074   13.2333   41.7705 H       1  UNL1        0.0626
     39 H           2.4398   14.2048   41.8013 H       1  UNL1        0.0655
     40 H          12.3777   14.2520   41.5299 H       1  UNL1        0.1084
     41 H           1.0509   13.3370   46.0724 H       1  UNL1        0.2923
     42 H          14.2081   15.8816   41.8713 H       1  UNL1        0.0683
     43 H           0.6190   14.5325   43.0161 H       1  UNL1        0.2923
     44 H          13.5161   13.4673   44.9039 H       1  UNL1        0.0647
     45 H          12.8792   17.5414   41.7157 H       1  UNL1        0.2102
     46 H          13.2200   16.1514   44.7601 H       1  UNL1        0.0648
     47 H          15.2684   15.0568   45.4513 H       1  UNL1        0.0647
     48 H          15.5345   12.3048   45.4905 H       1  UNL1        0.0584
     49 H          16.2113   12.5026   43.8652 H       1  UNL1        0.0584
     50 H          14.2794   17.8821   44.6228 H       1  UNL1        0.2100
     51 H          16.9191   14.6541   44.0979 H       1  UNL1        0.2100
     52 H          15.3394   10.5803   43.5258 H       1  UNL1        0.2095
@<TRIPOS>BOND
     1     1     2    2
     2     2     3   ar
     3     2     4   ar
     4     3     5   ar
     5     3     6   ar
     6     4     7   ar
     7     5     8   ar
     8     5     9   ar
     9     6    10    1
    10     6    11   ar
    11     7    12    1
    12     9    13   ar
    13    12    14   ar
    14    12    15   ar
    15    13    16    1
    16    14    17   ar
    17    15    18   ar
    18    16    19    1
    19    17    20    1
    20    17    21   ar
    21    19    22    1
    22    19    23    1
    23    21    24    1
    24    22    25    1
    25    23    26    1
    26    23    27    1
    27    25    28    1
    28    25    29    1
    29    27    30    1
    30    28    31    1
    31    29    32    1
    32     7     8   ar
    33    11    13   ar
    34    18    21   ar
    35    27    28    1
    36     4    33    1
    37     9    34    1
    38    10    35    1
    39    11    36    1
    40    14    37    1
    41    15    38    1
    42    18    39    1
    43    19    40    1
    44    20    41    1
    45    23    42    1
    46    24    43    1
    47    25    44    1
    48    26    45    1
    49    27    46    1
    50    28    47    1
    51    29    48    1
    52    29    49    1
    53    30    50    1
    54    31    51    1
    55    32    52    1
@<TRIPOS>SUBSTRUCTURE
     1 UNL1        1 TEMP              0 ****  ****    0 ROOT


##########                                Name:                 114
##########                DOCK_Rotatable_Bonds:                   6
##########                         Heavy_Atoms:                  21
##########                    Molecular_Weight:             289.374
##########                       Formal_Charge:         0.000300266
##########                     HBond_Acceptors:                   4
##########                        HBond_Donors:                   1
##########                    Descriptor_Score:           31.672915
##########          Footprint_Similarity_Score:            7.083445
##########                 desc_FPS_vdw_energy:          -35.065109
##########                  desc_FPS_es_energy:           -1.150995
##########              desc_FPS_vdw+es_energy:          -36.216106
##########                  desc_FPS_num_hbond:                   0
##########                    desc_FPS_vdw_fps:            5.971841
##########                     desc_FPS_es_fps:            1.111604
##########                     desc_FPS_hb_fps:            0.000000
##########              desc_FPS_vdw_fp_numres:                 219
##########               desc_FPS_es_fp_numres:                 219
##########               desc_FPS_hb_fp_numres:                 219
##########                 Pharmacophore_Score:           20.000000
##########              desc_FMS_num_match_tot:                   0
##########              desc_FMS_max_match_ref:                  10
##########              desc_FMS_max_match_mol:                   9
##########                 desc_FMS_match_rate:            4.000000
##########                desc_FMS_match_resid:            0.000000
##########    desc_FMS_num_hydrophobic_matched:                   0
##########          desc_FMS_num_donor_matched:                   0
##########       desc_FMS_num_acceptor_matched:                   0
##########       desc_FMS_num_aromatic_matched:                   0
##########       desc_FMS_num_positive_matched:                   0
##########       desc_FMS_num_negative_matched:                   0
##########           desc_FMS_num_ring_matched:                   0
########## Hungarian_Matching_Similarity_Score:            4.798644
##########       desc_HMS_num_unmtchd_hvy_atms:                  24
##########           desc_HMS_num_ref_hvy_atms:                  23
##########        desc_HMS_rmsd_mtchd_hvy_atms:            4.581252
##########               Property_Volume_Score:            0.209173
##########               desc_VOS_geometric_vo:            0.379709
##########                desc_VOS_hvy_atom_vo:            0.284225
##########            desc_VOS_pos_chrg_atm_vo:            0.198098
##########            desc_VOS_neg_chrg_atm_vo:            0.152841
##########         desc_VOS_hydrophobic_atm_vo:            0.224656
##########         desc_VOS_hydrophilic_atm_vo:            0.015509
##########           Internal_energy_repulsive:           11.217421

@<TRIPOS>MOLECULE
114
 44 46 1 0 0
SMALL
GASTEIGER


@<TRIPOS>ATOM
      1 O           8.1059   10.3269   43.4748 O.2     1  UNL1       -0.2501
      2 C           7.7838   11.4041   43.0063 C.2     1  UNL1        0.3171
      3 O           8.6635   12.3287   42.5482 O.3     1  UNL1       -0.4608
      4 C           6.3314   11.8197   42.8098 C.3     1  UNL1        0.1044
      5 C          10.0575   12.2131   42.9460 C.3     1  UNL1        0.1059
      6 C           5.6788   12.2711   44.1157 C.ar    1  UNL1       -0.0315
      7 C           6.1969   12.9386   41.7481 C.3     1  UNL1        0.0612
      8 C          10.3580   13.1287   44.1660 C.3     1  UNL1        0.0000
      9 C          10.9985   12.5426   41.7580 C.3     1  UNL1        0.0000
     10 C           5.9936   13.5025   44.7016 C.ar    1  UNL1       -0.0577
     11 C           4.7001   11.4678   44.7087 C.ar    1  UNL1       -0.0577
     12 O           5.8460   12.4000   40.4693 O.3     1  UNL1       -0.3939
     13 C          11.8921   13.2966   44.4030 C.3     1  UNL1        0.0138
     14 C          12.4720   12.7643   42.2331 C.3     1  UNL1        0.0138
     15 C           5.3476   13.9148   45.8670 C.ar    1  UNL1       -0.0615
     16 C           4.0507   11.8833   45.8697 C.ar    1  UNL1       -0.0615
     17 N          12.6174   12.2623   43.6240 N.3     1  UNL1       -0.2992
     18 C          12.4093   14.6271   43.8057 C.3     1  UNL1       -0.0358
     19 C          12.7930   14.2719   42.3576 C.3     1  UNL1       -0.0358
     20 C           4.3750   13.1067   46.4503 C.ar    1  UNL1       -0.0617
     21 C          14.0138   12.0293   44.0615 C.3     1  UNL1       -0.0122
     22 H           5.7909   10.9436   42.4412 H       1  UNL1        0.0485
     23 H          10.2572   11.1754   43.2310 H       1  UNL1        0.0735
     24 H           7.1401   13.4868   41.6679 H       1  UNL1        0.0568
     25 H           5.4178   13.6388   42.0603 H       1  UNL1        0.0568
     26 H           9.9106   12.6832   45.0569 H       1  UNL1        0.0316
     27 H           9.8766   14.1001   44.0288 H       1  UNL1        0.0316
     28 H          10.6253   13.4122   41.2120 H       1  UNL1        0.0316
     29 H          10.9735   11.7023   41.0604 H       1  UNL1        0.0316
     30 H           6.7383   14.1548   44.2533 H       1  UNL1        0.0621
     31 H           4.4290   10.5151   44.2592 H       1  UNL1        0.0621
     32 H           5.8515   13.1301   39.8213 H       1  UNL1        0.2094
     33 H          12.1096   13.2352   45.4734 H       1  UNL1        0.0464
     34 H          13.1625   12.2701   41.5433 H       1  UNL1        0.0464
     35 H           5.5985   14.8725   46.3165 H       1  UNL1        0.0618
     36 H           3.2858   11.2544   46.3192 H       1  UNL1        0.0618
     37 H          13.2965   14.9587   44.3490 H       1  UNL1        0.0281
     38 H          11.6690   15.4294   43.8491 H       1  UNL1        0.0281
     39 H          12.2534   14.8827   41.6292 H       1  UNL1        0.0281
     40 H          13.8630   14.4390   42.2098 H       1  UNL1        0.0281
     41 H           3.8657   13.4328   47.3541 H       1  UNL1        0.0618
     42 H          14.0171   11.6818   45.0987 H       1  UNL1        0.0391
     43 H          14.6117   12.9413   43.9925 H       1  UNL1        0.0391
     44 H          14.4689   11.2575   43.4352 H       1  UNL1        0.0391
@<TRIPOS>BOND
     1     1     2    2
     2     2     3    1
     3     2     4    1
     4     3     5    1
     5     4     6    1
     6     4     7    1
     7     5     8    1
     8     5     9    1
     9     6    10   ar
    10     6    11   ar
    11     7    12    1
    12     8    13    1
    13     9    14    1
    14    10    15   ar
    15    11    16   ar
    16    13    17    1
    17    13    18    1
    18    14    19    1
    19    15    20   ar
    20    17    21    1
    21    14    17    1
    22    16    20   ar
    23    18    19    1
    24     4    22    1
    25     5    23    1
    26     7    24    1
    27     7    25    1
    28     8    26    1
    29     8    27    1
    30     9    28    1
    31     9    29    1
    32    10    30    1
    33    11    31    1
    34    12    32    1
    35    13    33    1
    36    14    34    1
    37    15    35    1
    38    16    36    1
    39    18    37    1
    40    18    38    1
    41    19    39    1
    42    19    40    1
    43    20    41    1
    44    21    42    1
    45    21    43    1
    46    21    44    1
@<TRIPOS>SUBSTRUCTURE
     1 UNL1        1 TEMP              0 ****  ****    0 ROOT


##########                                Name:                 114
##########                DOCK_Rotatable_Bonds:                   6
##########                         Heavy_Atoms:                  21
##########                    Molecular_Weight:             289.374
##########                       Formal_Charge:         0.000300266
##########                     HBond_Acceptors:                   4
##########                        HBond_Donors:                   1
##########                    Descriptor_Score:           30.051422
##########          Footprint_Similarity_Score:            6.063301
##########                 desc_FPS_vdw_energy:          -33.509743
##########                  desc_FPS_es_energy:           -2.185050
##########              desc_FPS_vdw+es_energy:          -35.694794
##########                  desc_FPS_num_hbond:                   1
##########                    desc_FPS_vdw_fps:            4.900108
##########                     desc_FPS_es_fps:            1.163193
##########                     desc_FPS_hb_fps:            1.000000
##########              desc_FPS_vdw_fp_numres:                 219
##########               desc_FPS_es_fp_numres:                 219
##########               desc_FPS_hb_fp_numres:                 219
##########                 Pharmacophore_Score:           20.000000
##########              desc_FMS_num_match_tot:                   0
##########              desc_FMS_max_match_ref:                  10
##########              desc_FMS_max_match_mol:                   9
##########                 desc_FMS_match_rate:            4.000000
##########                desc_FMS_match_resid:            0.000000
##########    desc_FMS_num_hydrophobic_matched:                   0
##########          desc_FMS_num_donor_matched:                   0
##########       desc_FMS_num_acceptor_matched:                   0
##########       desc_FMS_num_aromatic_matched:                   0
##########       desc_FMS_num_positive_matched:                   0
##########       desc_FMS_num_negative_matched:                   0
##########           desc_FMS_num_ring_matched:                   0
########## Hungarian_Matching_Similarity_Score:            4.254014
##########       desc_HMS_num_unmtchd_hvy_atms:                  24
##########           desc_HMS_num_ref_hvy_atms:                  23
##########        desc_HMS_rmsd_mtchd_hvy_atms:            4.036623
##########               Property_Volume_Score:            0.265895
##########               desc_VOS_geometric_vo:            0.466758
##########                desc_VOS_hvy_atom_vo:            0.378419
##########            desc_VOS_pos_chrg_atm_vo:            0.237113
##########            desc_VOS_neg_chrg_atm_vo:            0.182719
##########         desc_VOS_hydrophobic_atm_vo:            0.281611
##########         desc_VOS_hydrophilic_atm_vo:            0.048749
##########           Internal_energy_repulsive:           13.437305

@<TRIPOS>MOLECULE
114
 44 46 1 0 0
SMALL
GASTEIGER


@<TRIPOS>ATOM
      1 O           8.4352   14.1657   42.2095 O.2     1  UNL1       -0.2501
      2 C           8.3765   13.0262   42.6360 C.2     1  UNL1        0.3171
      3 O           9.4552   12.3029   43.0259 O.3     1  UNL1       -0.4608
      4 C           7.0601   12.2910   42.8530 C.3     1  UNL1        0.1044
      5 C          10.7753   12.8931   42.8725 C.3     1  UNL1        0.1059
      6 C           6.3027   12.8121   44.0736 C.ar    1  UNL1       -0.0315
      7 C           6.1492   12.3710   41.6036 C.3     1  UNL1        0.0612
      8 C          11.8307   11.7998   42.5438 C.3     1  UNL1        0.0000
      9 C          11.1746   13.6875   44.1432 C.3     1  UNL1        0.0000
     10 C           6.9727   13.4028   45.1511 C.ar    1  UNL1       -0.0577
     11 C           4.9058   12.7558   44.0914 C.ar    1  UNL1       -0.0577
     12 O           6.8191   11.8720   40.4412 O.3     1  UNL1       -0.3939
     13 C          13.2894   12.3306   42.7115 C.3     1  UNL1        0.0138
     14 C          12.6992   14.0360   44.1508 C.3     1  UNL1        0.0138
     15 C           6.2556   13.9163   46.2315 C.ar    1  UNL1       -0.0615
     16 C           4.1897   13.2748   45.1686 C.ar    1  UNL1       -0.0615
     17 N          13.2582   13.8122   42.7923 N.3     1  UNL1       -0.2992
     18 C          13.8866   11.9073   44.0749 C.3     1  UNL1       -0.0358
     19 C          13.4900   13.0438   45.0348 C.3     1  UNL1       -0.0358
     20 C           4.8645   13.8544   46.2400 C.ar    1  UNL1       -0.0617
     21 C          14.5611   14.4699   42.5364 C.3     1  UNL1       -0.0122
     22 H           7.3014   11.2381   43.0228 H       1  UNL1        0.0485
     23 H          10.7466   13.6098   42.0458 H       1  UNL1        0.0735
     24 H           5.8456   13.4081   41.4338 H       1  UNL1        0.0568
     25 H           5.2503   11.7732   41.7748 H       1  UNL1        0.0568
     26 H          11.6900   11.4767   41.5102 H       1  UNL1        0.0316
     27 H          11.6618   10.9204   43.1701 H       1  UNL1        0.0316
     28 H          10.8933   13.1300   45.0397 H       1  UNL1        0.0316
     29 H          10.5986   14.6155   44.1598 H       1  UNL1        0.0316
     30 H           8.0570   13.4751   45.1565 H       1  UNL1        0.0621
     31 H           4.3659   12.3162   43.2558 H       1  UNL1        0.0621
     32 H           6.2129   11.9601   39.6812 H       1  UNL1        0.2094
     33 H          13.9095   11.9754   41.8833 H       1  UNL1        0.0464
     34 H          12.8426   15.0663   44.4897 H       1  UNL1        0.0464
     35 H           6.7835   14.3728   47.0653 H       1  UNL1        0.0618
     36 H           3.1031   13.2327   45.1696 H       1  UNL1        0.0618
     37 H          14.9747   11.8514   44.0030 H       1  UNL1        0.0281
     38 H          13.5218   10.9357   44.4162 H       1  UNL1        0.0281
     39 H          12.9098   12.6775   45.8858 H       1  UNL1        0.0281
     40 H          14.3900   13.5264   45.4242 H       1  UNL1        0.0281
     41 H           4.3057   14.2628   47.0788 H       1  UNL1        0.0618
     42 H          14.8965   14.2311   41.5231 H       1  UNL1        0.0391
     43 H          15.3220   14.1395   43.2477 H       1  UNL1        0.0391
     44 H          14.4453   15.5539   42.6176 H       1  UNL1        0.0391
@<TRIPOS>BOND
     1     1     2    2
     2     2     3    1
     3     2     4    1
     4     3     5    1
     5     4     6    1
     6     4     7    1
     7     5     8    1
     8     5     9    1
     9     6    10   ar
    10     6    11   ar
    11     7    12    1
    12     8    13    1
    13     9    14    1
    14    10    15   ar
    15    11    16   ar
    16    13    17    1
    17    13    18    1
    18    14    19    1
    19    15    20   ar
    20    17    21    1
    21    14    17    1
    22    16    20   ar
    23    18    19    1
    24     4    22    1
    25     5    23    1
    26     7    24    1
    27     7    25    1
    28     8    26    1
    29     8    27    1
    30     9    28    1
    31     9    29    1
    32    10    30    1
    33    11    31    1
    34    12    32    1
    35    13    33    1
    36    14    34    1
    37    15    35    1
    38    16    36    1
    39    18    37    1
    40    18    38    1
    41    19    39    1
    42    19    40    1
    43    20    41    1
    44    21    42    1
    45    21    43    1
    46    21    44    1
@<TRIPOS>SUBSTRUCTURE
     1 UNL1        1 TEMP              0 ****  ****    0 ROOT


##########                                Name:                 114
##########                DOCK_Rotatable_Bonds:                   6
##########                         Heavy_Atoms:                  21
##########                    Molecular_Weight:             289.374
##########                       Formal_Charge:         0.000300266
##########                     HBond_Acceptors:                   4
##########                        HBond_Donors:                   1
##########                    Descriptor_Score:           30.212978
##########          Footprint_Similarity_Score:            6.315828
##########                 desc_FPS_vdw_energy:          -32.212635
##########                  desc_FPS_es_energy:           -2.789891
##########              desc_FPS_vdw+es_energy:          -35.002525
##########                  desc_FPS_num_hbond:                   2
##########                    desc_FPS_vdw_fps:            4.907221
##########                     desc_FPS_es_fps:            1.408607
##########                     desc_FPS_hb_fps:            1.414214
##########              desc_FPS_vdw_fp_numres:                 219
##########               desc_FPS_es_fp_numres:                 219
##########               desc_FPS_hb_fp_numres:                 219
##########                 Pharmacophore_Score:           20.000000
##########              desc_FMS_num_match_tot:                   0
##########              desc_FMS_max_match_ref:                  10
##########              desc_FMS_max_match_mol:                   9
##########                 desc_FMS_match_rate:            4.000000
##########                desc_FMS_match_resid:            0.000000
##########    desc_FMS_num_hydrophobic_matched:                   0
##########          desc_FMS_num_donor_matched:                   0
##########       desc_FMS_num_acceptor_matched:                   0
##########       desc_FMS_num_aromatic_matched:                   0
##########       desc_FMS_num_positive_matched:                   0
##########       desc_FMS_num_negative_matched:                   0
##########           desc_FMS_num_ring_matched:                   0
########## Hungarian_Matching_Similarity_Score:            4.163467
##########       desc_HMS_num_unmtchd_hvy_atms:                  24
##########           desc_HMS_num_ref_hvy_atms:                  23
##########        desc_HMS_rmsd_mtchd_hvy_atms:            3.946076
##########               Property_Volume_Score:            0.266318
##########               desc_VOS_geometric_vo:            0.465720
##########                desc_VOS_hvy_atom_vo:            0.372639
##########            desc_VOS_pos_chrg_atm_vo:            0.234489
##########            desc_VOS_neg_chrg_atm_vo:            0.179115
##########         desc_VOS_hydrophobic_atm_vo:            0.288852
##########         desc_VOS_hydrophilic_atm_vo:            0.057093
##########           Internal_energy_repulsive:           11.460476

@<TRIPOS>MOLECULE
114
 44 46 1 0 0
SMALL
GASTEIGER


@<TRIPOS>ATOM
      1 O           8.4141   13.9819   41.9678 O.2     1  UNL1       -0.2501
      2 C           8.3833   12.8921   42.5111 C.2     1  UNL1        0.3171
      3 O           9.4817   12.2292   42.9504 O.3     1  UNL1       -0.4608
      4 C           7.0842   12.1638   42.8315 C.3     1  UNL1        0.1044
      5 C          10.7777   12.8759   42.8193 C.3     1  UNL1        0.1059
      6 C           6.3393   12.8014   44.0035 C.ar    1  UNL1       -0.0315
      7 C           6.1502   12.0943   41.5987 C.3     1  UNL1        0.0612
      8 C          11.8958   11.8217   42.5835 C.3     1  UNL1        0.0000
      9 C          11.0875   13.7463   44.0649 C.3     1  UNL1        0.0000
     10 C           4.9412   12.8040   44.0653 C.ar    1  UNL1       -0.0577
     11 C           7.0669   13.3399   45.0692 C.ar    1  UNL1       -0.0577
     12 O           6.8179   11.5111   40.4750 O.3     1  UNL1       -0.3939
     13 C          13.3200   12.4305   42.7810 C.3     1  UNL1        0.0138
     14 C          12.5924   14.1692   44.1137 C.3     1  UNL1        0.0138
     15 C           4.2851   13.3475   45.1696 C.ar    1  UNL1       -0.0615
     16 C           6.4105   13.8772   46.1750 C.ar    1  UNL1       -0.0615
     17 N          13.2155   13.9110   42.7897 N.3     1  UNL1       -0.2992
     18 C          13.8811   12.1000   44.1848 C.3     1  UNL1       -0.0358
     19 C          13.3929   13.2586   45.0735 C.3     1  UNL1       -0.0358
     20 C           5.0189   13.8824   46.2253 C.ar    1  UNL1       -0.0617
     21 C          14.4952   14.6193   42.5524 C.3     1  UNL1       -0.0122
     22 H           7.3472   11.1394   43.1088 H       1  UNL1        0.0485
     23 H          10.7484   13.5516   41.9588 H       1  UNL1        0.0735
     24 H           5.8066   13.0998   41.3386 H       1  UNL1        0.0568
     25 H           5.2764   11.4850   41.8433 H       1  UNL1        0.0568
     26 H          11.8123   11.4450   41.5620 H       1  UNL1        0.0316
     27 H          11.7436   10.9647   43.2443 H       1  UNL1        0.0316
     28 H          10.7970   13.2175   44.9756 H       1  UNL1        0.0316
     29 H          10.4681   14.6448   44.0152 H       1  UNL1        0.0316
     30 H           4.3504   12.3774   43.2591 H       1  UNL1        0.0621
     31 H           8.1543   13.3319   45.0478 H       1  UNL1        0.0621
     32 H           6.2271   11.5823   39.7012 H       1  UNL1        0.2094
     33 H          13.9889   12.0686   41.9948 H       1  UNL1        0.0464
     34 H          12.6732   15.2198   44.4082 H       1  UNL1        0.0464
     35 H           3.1985   13.3466   45.2096 H       1  UNL1        0.0618
     36 H           6.9855   14.2871   47.0020 H       1  UNL1        0.0618
     37 H          14.9726   12.0944   44.1570 H       1  UNL1        0.0281
     38 H          13.5491   11.1284   44.5579 H       1  UNL1        0.0281
     39 H          12.7969   12.9037   45.9184 H       1  UNL1        0.0281
     40 H          14.2527   13.8021   45.4733 H       1  UNL1        0.0281
     41 H           4.5067   14.2982   47.0898 H       1  UNL1        0.0618
     42 H          14.8820   14.3510   41.5651 H       1  UNL1        0.0391
     43 H          15.2416   14.3596   43.3070 H       1  UNL1        0.0391
     44 H          14.3252   15.6989   42.5772 H       1  UNL1        0.0391
@<TRIPOS>BOND
     1     1     2    2
     2     2     3    1
     3     2     4    1
     4     3     5    1
     5     4     6    1
     6     4     7    1
     7     5     8    1
     8     5     9    1
     9     6    10   ar
    10     6    11   ar
    11     7    12    1
    12     8    13    1
    13     9    14    1
    14    10    15   ar
    15    11    16   ar
    16    13    17    1
    17    13    18    1
    18    14    19    1
    19    15    20   ar
    20    17    21    1
    21    14    17    1
    22    16    20   ar
    23    18    19    1
    24     4    22    1
    25     5    23    1
    26     7    24    1
    27     7    25    1
    28     8    26    1
    29     8    27    1
    30     9    28    1
    31     9    29    1
    32    10    30    1
    33    11    31    1
    34    12    32    1
    35    13    33    1
    36    14    34    1
    37    15    35    1
    38    16    36    1
    39    18    37    1
    40    18    38    1
    41    19    39    1
    42    19    40    1
    43    20    41    1
    44    21    42    1
    45    21    43    1
    46    21    44    1
@<TRIPOS>SUBSTRUCTURE
     1 UNL1        1 TEMP              0 ****  ****    0 ROOT


##########                                Name:                 115
##########                DOCK_Rotatable_Bonds:                   3
##########                         Heavy_Atoms:                  20
##########                    Molecular_Weight:             275.351
##########                       Formal_Charge:        -0.000299871
##########                     HBond_Acceptors:                   5
##########                        HBond_Donors:                   1
##########                    Descriptor_Score:           18.521797
##########          Footprint_Similarity_Score:            8.089025
##########                 desc_FPS_vdw_energy:          -27.635361
##########                  desc_FPS_es_energy:           -0.925498
##########              desc_FPS_vdw+es_energy:          -28.560858
##########                  desc_FPS_num_hbond:                   0
##########                    desc_FPS_vdw_fps:            6.730199
##########                     desc_FPS_es_fps:            1.358826
##########                     desc_FPS_hb_fps:            0.000000
##########              desc_FPS_vdw_fp_numres:                 219
##########               desc_FPS_es_fp_numres:                 219
##########               desc_FPS_hb_fp_numres:                 219
##########                 Pharmacophore_Score:            7.254004
##########              desc_FMS_num_match_tot:                   1
##########              desc_FMS_max_match_ref:                  10
##########              desc_FMS_max_match_mol:                   9
##########                 desc_FMS_match_rate:            0.900000
##########                desc_FMS_match_resid:            2.754004
##########    desc_FMS_num_hydrophobic_matched:                   0
##########          desc_FMS_num_donor_matched:                   1
##########       desc_FMS_num_acceptor_matched:                   0
##########       desc_FMS_num_aromatic_matched:                   0
##########       desc_FMS_num_positive_matched:                   0
##########       desc_FMS_num_negative_matched:                   0
##########           desc_FMS_num_ring_matched:                   0
########## Hungarian_Matching_Similarity_Score:            3.359811
##########       desc_HMS_num_unmtchd_hvy_atms:                  23
##########           desc_HMS_num_ref_hvy_atms:                  23
##########        desc_HMS_rmsd_mtchd_hvy_atms:            3.359811
##########               Property_Volume_Score:            0.181042
##########               desc_VOS_geometric_vo:            0.250034
##########                desc_VOS_hvy_atom_vo:            0.202797
##########            desc_VOS_pos_chrg_atm_vo:            0.152615
##########            desc_VOS_neg_chrg_atm_vo:            0.098914
##########         desc_VOS_hydrophobic_atm_vo:            0.074935
##########         desc_VOS_hydrophilic_atm_vo:            0.306957
##########           Internal_energy_repulsive:           10.820283

@<TRIPOS>MOLECULE
115
 41 43 1 0 0
SMALL
GASTEIGER


@<TRIPOS>ATOM
      1 O          11.1716   12.8807   43.7520 O.2     1  UNL1       -0.2260
      2 C          11.1808   11.6950   43.4897 C.2     1  UNL1        0.4053
      3 O          10.0935   10.9329   43.2350 O.3     1  UNL1       -0.4115
      4 N          12.3191   10.9722   43.4795 N.am    1  UNL1       -0.2839
      5 C           8.7843   11.3716   43.1912 C.ar    1  UNL1        0.1336
      6 C          13.6650   11.5067   43.7203 C.3     1  UNL1        0.0032
      7 C           8.4705   12.7117   42.9614 C.ar    1  UNL1       -0.0136
      8 C           7.7734   10.4182   43.3150 C.ar    1  UNL1       -0.0174
      9 C           7.0897   13.0931   42.8349 C.ar    1  UNL1       -0.0139
     10 C           6.3740   10.7635   43.2707 C.ar    1  UNL1       -0.0369
     11 C           6.0307   12.1178   42.9242 C.ar    1  UNL1        0.0347
     12 C           6.6514   14.5316   42.7670 C.3     1  UNL1        0.0279
     13 N           4.9334   12.9400   42.8769 N.pl3   1  UNL1       -0.3162
     14 C           5.1690   14.3262   42.4618 C.3     1  UNL1        0.0860
     15 C           7.2222   15.2541   41.5347 C.3     1  UNL1       -0.0277
     16 C           6.9102   15.2436   44.1118 C.3     1  UNL1       -0.0525
     17 C           3.8440   12.7091   43.8303 C.3     1  UNL1        0.0022
     18 N           5.0236   14.5462   40.9910 N.3     1  UNL1       -0.2867
     19 C           6.3651   14.7043   40.3918 C.3     1  UNL1        0.0012
     20 C           4.1568   13.6042   40.2455 C.3     1  UNL1       -0.0111
     21 H          12.2503    9.9852   43.2766 H       1  UNL1        0.1517
     22 H          13.6746   12.0688   44.6584 H       1  UNL1        0.0427
     23 H          13.9448   12.1678   42.8955 H       1  UNL1        0.0427
     24 H          14.3769   10.6811   43.7841 H       1  UNL1        0.0427
     25 H           9.2575   13.4478   42.8235 H       1  UNL1        0.0658
     26 H           8.0256    9.3710   43.4593 H       1  UNL1        0.0655
     27 H           5.6058   10.0184   43.4476 H       1  UNL1        0.0637
     28 H           4.5236   15.0343   43.0041 H       1  UNL1        0.0680
     29 H           8.2875   15.0720   41.3801 H       1  UNL1        0.0287
     30 H           7.0600   16.3316   41.6238 H       1  UNL1        0.0287
     31 H           6.4656   14.6811   44.9369 H       1  UNL1        0.0239
     32 H           6.4709   16.2438   44.1070 H       1  UNL1        0.0239
     33 H           7.9817   15.3394   44.2990 H       1  UNL1        0.0239
     34 H           4.2563   12.3981   44.7950 H       1  UNL1        0.0428
     35 H           3.1839   11.9232   43.4557 H       1  UNL1        0.0428
     36 H           3.2584   13.6201   43.9818 H       1  UNL1        0.0428
     37 H           6.7578   13.7294   40.0875 H       1  UNL1        0.0427
     38 H           6.3460   15.3816   39.5337 H       1  UNL1        0.0427
     39 H           3.1677   13.5576   40.7070 H       1  UNL1        0.0391
     40 H           4.5996   12.6030   40.2471 H       1  UNL1        0.0391
     41 H           4.0516   13.9370   39.2095 H       1  UNL1        0.0391
@<TRIPOS>BOND
     1     1     2    2
     2     2     3    1
     3     2     4   am
     4     3     5    1
     5     4     6    1
     6     5     7   ar
     7     5     8   ar
     8     7     9   ar
     9     8    10   ar
    10     9    11   ar
    11     9    12    1
    12    11    13    1
    13    12    14    1
    14    12    15    1
    15    12    16    1
    16    13    17    1
    17    14    18    1
    18    15    19    1
    19    18    20    1
    20    10    11   ar
    21    13    14    1
    22    18    19    1
    23     4    21    1
    24     6    22    1
    25     6    23    1
    26     6    24    1
    27     7    25    1
    28     8    26    1
    29    10    27    1
    30    14    28    1
    31    15    29    1
    32    15    30    1
    33    16    31    1
    34    16    32    1
    35    16    33    1
    36    17    34    1
    37    17    35    1
    38    17    36    1
    39    19    37    1
    40    19    38    1
    41    20    39    1
    42    20    40    1
    43    20    41    1
@<TRIPOS>SUBSTRUCTURE
     1 UNL1        1 TEMP              0 ****  ****    0 ROOT


##########                                Name:                 115
##########                DOCK_Rotatable_Bonds:                   3
##########                         Heavy_Atoms:                  20
##########                    Molecular_Weight:             275.351
##########                       Formal_Charge:        -0.000299871
##########                     HBond_Acceptors:                   5
##########                        HBond_Donors:                   1
##########                    Descriptor_Score:           29.724192
##########          Footprint_Similarity_Score:            6.988966
##########                 desc_FPS_vdw_energy:          -25.207010
##########                  desc_FPS_es_energy:           -2.061058
##########              desc_FPS_vdw+es_energy:          -27.268068
##########                  desc_FPS_num_hbond:                   2
##########                    desc_FPS_vdw_fps:            6.185369
##########                     desc_FPS_es_fps:            0.803596
##########                     desc_FPS_hb_fps:            1.414214
##########              desc_FPS_vdw_fp_numres:                 219
##########               desc_FPS_es_fp_numres:                 219
##########               desc_FPS_hb_fp_numres:                 219
##########                 Pharmacophore_Score:           20.000000
##########              desc_FMS_num_match_tot:                   0
##########              desc_FMS_max_match_ref:                  10
##########              desc_FMS_max_match_mol:                   9
##########                 desc_FMS_match_rate:            4.000000
##########                desc_FMS_match_resid:            0.000000
##########    desc_FMS_num_hydrophobic_matched:                   0
##########          desc_FMS_num_donor_matched:                   0
##########       desc_FMS_num_acceptor_matched:                   0
##########       desc_FMS_num_aromatic_matched:                   0
##########       desc_FMS_num_positive_matched:                   0
##########       desc_FMS_num_negative_matched:                   0
##########           desc_FMS_num_ring_matched:                   0
########## Hungarian_Matching_Similarity_Score:            2.988292
##########       desc_HMS_num_unmtchd_hvy_atms:                  23
##########           desc_HMS_num_ref_hvy_atms:                  23
##########        desc_HMS_rmsd_mtchd_hvy_atms:            2.988292
##########               Property_Volume_Score:            0.253066
##########               desc_VOS_geometric_vo:            0.297679
##########                desc_VOS_hvy_atom_vo:            0.247060
##########            desc_VOS_pos_chrg_atm_vo:            0.164988
##########            desc_VOS_neg_chrg_atm_vo:            0.119561
##########         desc_VOS_hydrophobic_atm_vo:            0.109178
##########         desc_VOS_hydrophilic_atm_vo:            0.579926
##########           Internal_energy_repulsive:            5.886349

@<TRIPOS>MOLECULE
115
 41 43 1 0 0
SMALL
GASTEIGER


@<TRIPOS>ATOM
      1 O          12.0423   12.0395   41.7174 O.2     1  UNL1       -0.2260
      2 C          11.6258   11.4724   42.7072 C.2     1  UNL1        0.4053
      3 O          10.4533   10.8060   42.8023 O.3     1  UNL1       -0.4115
      4 N          12.2908   11.4966   43.8800 N.am    1  UNL1       -0.2839
      5 C           9.2022   11.3755   42.9388 C.ar    1  UNL1        0.1336
      6 C          13.5909   12.1405   44.1043 C.3     1  UNL1        0.0032
      7 C           8.9690   12.7123   42.6136 C.ar    1  UNL1       -0.0136
      8 C           8.1529   10.5524   43.3484 C.ar    1  UNL1       -0.0174
      9 C           7.6274   13.2248   42.6885 C.ar    1  UNL1       -0.0139
     10 C           6.8053   11.0391   43.5110 C.ar    1  UNL1       -0.0369
     11 C           6.5228   12.3817   43.0753 C.ar    1  UNL1        0.0347
     12 C           7.3112   14.6881   42.5321 C.3     1  UNL1        0.0279
     13 N           5.5117   13.3077   43.1265 N.pl3   1  UNL1       -0.3162
     14 C           5.7857   14.6133   42.5182 C.3     1  UNL1        0.0860
     15 C           7.7030   15.2208   41.1431 C.3     1  UNL1       -0.0277
     16 C           7.8771   15.4972   43.7184 C.3     1  UNL1       -0.0525
     17 C           4.6032   13.2894   44.2769 C.3     1  UNL1        0.0022
     18 N           5.3884   14.7017   41.0805 N.3     1  UNL1       -0.2867
     19 C           6.6033   14.6559   40.2405 C.3     1  UNL1        0.0012
     20 C           4.3191   13.7890   40.6136 C.3     1  UNL1       -0.0111
     21 H          11.8743   11.0237   44.6693 H       1  UNL1        0.1517
     22 H          13.5515   13.1777   43.7600 H       1  UNL1        0.0427
     23 H          14.3628   11.6005   43.5490 H       1  UNL1        0.0427
     24 H          13.8264   12.1201   45.1705 H       1  UNL1        0.0427
     25 H           9.7776   13.3430   42.2549 H       1  UNL1        0.0658
     26 H           8.3354    9.5035   43.5667 H       1  UNL1        0.0655
     27 H           6.0216   10.4014   43.9056 H       1  UNL1        0.0637
     28 H           5.3169   15.4362   43.0796 H       1  UNL1        0.0680
     29 H           8.7008   14.9116   40.8258 H       1  UNL1        0.0287
     30 H           7.6547   16.3130   41.1336 H       1  UNL1        0.0287
     31 H           7.5468   15.0694   44.6686 H       1  UNL1        0.0239
     32 H           7.5335   16.5333   43.6748 H       1  UNL1        0.0239
     33 H           8.9690   15.4960   43.7019 H       1  UNL1        0.0239
     34 H           5.1594   13.0326   45.1836 H       1  UNL1        0.0428
     35 H           3.8189   12.5455   44.1181 H       1  UNL1        0.0428
     36 H           4.1378   14.2682   44.4221 H       1  UNL1        0.0428
     37 H           6.8459   13.6195   39.9873 H       1  UNL1        0.0427
     38 H           6.4837   15.2436   39.3263 H       1  UNL1        0.0427
     39 H           3.4331   13.8939   41.2442 H       1  UNL1        0.0391
     40 H           4.6655   12.7512   40.6536 H       1  UNL1        0.0391
     41 H           4.0521   14.0276   39.5808 H       1  UNL1        0.0391
@<TRIPOS>BOND
     1     1     2    2
     2     2     3    1
     3     2     4   am
     4     3     5    1
     5     4     6    1
     6     5     7   ar
     7     5     8   ar
     8     7     9   ar
     9     8    10   ar
    10     9    11   ar
    11     9    12    1
    12    11    13    1
    13    12    14    1
    14    12    15    1
    15    12    16    1
    16    13    17    1
    17    14    18    1
    18    15    19    1
    19    18    20    1
    20    10    11   ar
    21    13    14    1
    22    18    19    1
    23     4    21    1
    24     6    22    1
    25     6    23    1
    26     6    24    1
    27     7    25    1
    28     8    26    1
    29    10    27    1
    30    14    28    1
    31    15    29    1
    32    15    30    1
    33    16    31    1
    34    16    32    1
    35    16    33    1
    36    17    34    1
    37    17    35    1
    38    17    36    1
    39    19    37    1
    40    19    38    1
    41    20    39    1
    42    20    40    1
    43    20    41    1
@<TRIPOS>SUBSTRUCTURE
     1 UNL1        1 TEMP              0 ****  ****    0 ROOT


##########                                Name:                 115
##########                DOCK_Rotatable_Bonds:                   3
##########                         Heavy_Atoms:                  20
##########                    Molecular_Weight:             275.351
##########                       Formal_Charge:        -0.000299871
##########                     HBond_Acceptors:                   5
##########                        HBond_Donors:                   1
##########                    Descriptor_Score:           35.123581
##########          Footprint_Similarity_Score:            9.699701
##########                 desc_FPS_vdw_energy:          -23.753574
##########                  desc_FPS_es_energy:           -1.427732
##########              desc_FPS_vdw+es_energy:          -25.181307
##########                  desc_FPS_num_hbond:                   2
##########                    desc_FPS_vdw_fps:            8.307020
##########                     desc_FPS_es_fps:            1.392681
##########                     desc_FPS_hb_fps:            1.414214
##########              desc_FPS_vdw_fp_numres:                 219
##########               desc_FPS_es_fp_numres:                 219
##########               desc_FPS_hb_fp_numres:                 219
##########                 Pharmacophore_Score:           20.000000
##########              desc_FMS_num_match_tot:                   0
##########              desc_FMS_max_match_ref:                  10
##########              desc_FMS_max_match_mol:                   9
##########                 desc_FMS_match_rate:            4.000000
##########                desc_FMS_match_resid:            0.000000
##########    desc_FMS_num_hydrophobic_matched:                   0
##########          desc_FMS_num_donor_matched:                   0
##########       desc_FMS_num_acceptor_matched:                   0
##########       desc_FMS_num_aromatic_matched:                   0
##########       desc_FMS_num_positive_matched:                   0
##########       desc_FMS_num_negative_matched:                   0
##########           desc_FMS_num_ring_matched:                   0
########## Hungarian_Matching_Similarity_Score:            5.428824
##########       desc_HMS_num_unmtchd_hvy_atms:                  23
##########           desc_HMS_num_ref_hvy_atms:                  23
##########        desc_HMS_rmsd_mtchd_hvy_atms:            5.428824
##########               Property_Volume_Score:            0.004942
##########               desc_VOS_geometric_vo:            0.011673
##########                desc_VOS_hvy_atom_vo:            0.002672
##########            desc_VOS_pos_chrg_atm_vo:            0.010819
##########            desc_VOS_neg_chrg_atm_vo:            0.001410
##########         desc_VOS_hydrophobic_atm_vo:            0.003079
##########         desc_VOS_hydrophilic_atm_vo:            0.000000
##########           Internal_energy_repulsive:            6.034787

@<TRIPOS>MOLECULE
115
 41 43 1 0 0
SMALL
GASTEIGER


@<TRIPOS>ATOM
      1 O           5.6960    9.2308   43.8487 O.2     1  UNL1       -0.2260
      2 C           6.7243    9.6488   43.3563 C.2     1  UNL1        0.4053
      3 O           6.8268   10.6998   42.5121 O.3     1  UNL1       -0.4115
      4 N           7.9140    9.0490   43.5644 N.am    1  UNL1       -0.2839
      5 C           6.0553   11.8454   42.5413 C.ar    1  UNL1        0.1336
      6 C           8.1359    7.8825   44.4277 C.3     1  UNL1        0.0032
      7 C           5.4896   12.3147   43.7274 C.ar    1  UNL1       -0.0136
      8 C           5.9132   12.5655   41.3549 C.ar    1  UNL1       -0.0174
      9 C           4.7735   13.5618   43.7132 C.ar    1  UNL1       -0.0139
     10 C           5.1417   13.7811   41.2749 C.ar    1  UNL1       -0.0369
     11 C           4.6451   14.3395   42.5053 C.ar    1  UNL1        0.0347
     12 C           3.9821   14.0529   44.8958 C.3     1  UNL1        0.0279
     13 N           3.8047   15.3331   42.9397 N.pl3   1  UNL1       -0.3162
     14 C           3.6162   15.4465   44.3892 C.3     1  UNL1        0.0860
     15 C           4.8700   14.2907   46.1293 C.3     1  UNL1       -0.0277
     16 C           2.7573   13.1473   45.1452 C.3     1  UNL1       -0.0525
     17 C           2.6701   15.7109   42.0917 C.3     1  UNL1        0.0022
     18 N           4.5761   16.3827   45.0487 N.3     1  UNL1       -0.2867
     19 C           5.5894   15.5967   45.7828 C.3     1  UNL1        0.0012
     20 C           5.1611   17.4565   44.2125 C.3     1  UNL1       -0.0111
     21 H           8.7253    9.4360   43.1039 H       1  UNL1        0.1517
     22 H           7.4411    7.0841   44.1522 H       1  UNL1        0.0427
     23 H           7.9700    8.1673   45.4704 H       1  UNL1        0.0427
     24 H           9.1620    7.5301   44.3042 H       1  UNL1        0.0427
     25 H           5.6347   11.7764   44.6598 H       1  UNL1        0.0658
     26 H           6.3856   12.2122   40.4422 H       1  UNL1        0.0655
     27 H           4.9794   14.2819   40.3265 H       1  UNL1        0.0637
     28 H           2.5859   15.7341   44.6497 H       1  UNL1        0.0680
     29 H           5.5656   13.4728   46.3271 H       1  UNL1        0.0287
     30 H           4.2474   14.4434   47.0150 H       1  UNL1        0.0287
     31 H           2.1687   13.0355   44.2310 H       1  UNL1        0.0239
     32 H           2.1119   13.5782   45.9141 H       1  UNL1        0.0239
     33 H           3.0708   12.1549   45.4759 H       1  UNL1        0.0239
     34 H           2.2622   14.8217   41.6016 H       1  UNL1        0.0428
     35 H           2.9984   16.4193   41.3273 H       1  UNL1        0.0428
     36 H           1.8766   16.1737   42.6849 H       1  UNL1        0.0428
     37 H           6.4384   15.3746   45.1293 H       1  UNL1        0.0427
     38 H           5.9362   16.1212   46.6773 H       1  UNL1        0.0427
     39 H           4.3679   18.0295   43.7269 H       1  UNL1        0.0391
     40 H           5.8112   17.0242   43.4448 H       1  UNL1        0.0391
     41 H           5.7570   18.1289   44.8352 H       1  UNL1        0.0391
@<TRIPOS>BOND
     1     1     2    2
     2     2     3    1
     3     2     4   am
     4     3     5    1
     5     4     6    1
     6     5     7   ar
     7     5     8   ar
     8     7     9   ar
     9     8    10   ar
    10     9    11   ar
    11     9    12    1
    12    11    13    1
    13    12    14    1
    14    12    15    1
    15    12    16    1
    16    13    17    1
    17    14    18    1
    18    15    19    1
    19    18    20    1
    20    10    11   ar
    21    13    14    1
    22    18    19    1
    23     4    21    1
    24     6    22    1
    25     6    23    1
    26     6    24    1
    27     7    25    1
    28     8    26    1
    29    10    27    1
    30    14    28    1
    31    15    29    1
    32    15    30    1
    33    16    31    1
    34    16    32    1
    35    16    33    1
    36    17    34    1
    37    17    35    1
    38    17    36    1
    39    19    37    1
    40    19    38    1
    41    20    39    1
    42    20    40    1
    43    20    41    1
@<TRIPOS>SUBSTRUCTURE
     1 UNL1        1 TEMP              0 ****  ****    0 ROOT


##########                                Name:                 116
##########                DOCK_Rotatable_Bonds:                   1
##########                         Heavy_Atoms:                  16
##########                    Molecular_Weight:             216.193
##########                       Formal_Charge:        -0.000100009
##########                     HBond_Acceptors:                   4
##########                        HBond_Donors:                   0
##########                    Descriptor_Score:           42.326538
##########          Footprint_Similarity_Score:           13.147388
##########                 desc_FPS_vdw_energy:          -29.283611
##########                  desc_FPS_es_energy:            0.646625
##########              desc_FPS_vdw+es_energy:          -28.636986
##########                  desc_FPS_num_hbond:                   2
##########                    desc_FPS_vdw_fps:           10.653287
##########                     desc_FPS_es_fps:            2.494102
##########                     desc_FPS_hb_fps:            1.414214
##########              desc_FPS_vdw_fp_numres:                 219
##########               desc_FPS_es_fp_numres:                 219
##########               desc_FPS_hb_fp_numres:                 219
##########                 Pharmacophore_Score:           20.000000
##########              desc_FMS_num_match_tot:                   0
##########              desc_FMS_max_match_ref:                  10
##########              desc_FMS_max_match_mol:                   7
##########                 desc_FMS_match_rate:            4.000000
##########                desc_FMS_match_resid:            0.000000
##########    desc_FMS_num_hydrophobic_matched:                   0
##########          desc_FMS_num_donor_matched:                   0
##########       desc_FMS_num_acceptor_matched:                   0
##########       desc_FMS_num_aromatic_matched:                   0
##########       desc_FMS_num_positive_matched:                   0
##########       desc_FMS_num_negative_matched:                   0
##########           desc_FMS_num_ring_matched:                   0
########## Hungarian_Matching_Similarity_Score:            9.179151
##########       desc_HMS_num_unmtchd_hvy_atms:                  11
##########           desc_HMS_num_ref_hvy_atms:                  23
##########        desc_HMS_rmsd_mtchd_hvy_atms:           11.787847
##########               Property_Volume_Score:            0.000000
##########               desc_VOS_geometric_vo:            0.000000
##########                desc_VOS_hvy_atom_vo:            0.000000
##########            desc_VOS_pos_chrg_atm_vo:            0.000000
##########            desc_VOS_neg_chrg_atm_vo:            0.000000
##########         desc_VOS_hydrophobic_atm_vo:            0.000000
##########         desc_VOS_hydrophilic_atm_vo:            0.000000
##########           Internal_energy_repulsive:            4.240593

@<TRIPOS>MOLECULE
116
 24 26 1 0 0
SMALL
GASTEIGER


@<TRIPOS>ATOM
      1 O          21.0485    7.7591   43.0128 O.2     1  UNL1       -0.2452
      2 C          21.6408    8.2343   42.0663 C.ar    1  UNL1        0.3372
      3 O          21.6177    7.6449   40.8488 O.2     1  UNL1       -0.4219
      4 C          22.4154    9.4782   42.1269 C.ar    1  UNL1        0.0237
      5 C          22.2857    8.0902   39.7218 C.ar    1  UNL1        0.1461
      6 C          23.0615   10.0252   40.9693 C.ar    1  UNL1       -0.0408
      7 C          22.9859    9.3593   39.7474 C.ar    1  UNL1        0.0600
      8 C          22.2525    7.2104   38.5811 C.ar    1  UNL1        0.0245
      9 C          23.5243    9.8165   38.5288 C.ar    1  UNL1        0.1414
     10 C          22.5544    7.8249   37.3147 C.ar    1  UNL1        0.1418
     11 O          24.2442   10.9745   38.2423 O.3     1  UNL1       -0.4937
     12 C          23.2990    9.0373   37.3347 C.ar    1  UNL1        0.0625
     13 O          22.8840    7.1170   36.1884 O.2     1  UNL1       -0.4627
     14 C          24.6884   11.9973   39.1586 C.3     1  UNL1        0.0788
     15 C          24.0762    9.0767   36.1390 C.ar    1  UNL1       -0.0126
     16 C          23.7543    7.9155   35.4742 C.ar    1  UNL1        0.0933
     17 H          22.4379    9.9674   43.0950 H       1  UNL1        0.0689
     18 H          23.5511   10.9745   41.1285 H       1  UNL1        0.0628
     19 H          21.6955    6.2817   38.4864 H       1  UNL1        0.0692
     20 H          25.2360   12.7556   38.5925 H       1  UNL1        0.0660
     21 H          25.3572   11.5600   39.9052 H       1  UNL1        0.0660
     22 H          23.8223   12.4648   39.6341 H       1  UNL1        0.0660
     23 H          24.8129    9.8234   35.8629 H       1  UNL1        0.0656
     24 H          24.1057    7.4869   34.5432 H       1  UNL1        0.1030
@<TRIPOS>BOND
     1     1     2    2
     2     2     3   ar
     3     2     4   ar
     4     3     5   ar
     5     4     6   ar
     6     5     7   ar
     7     5     8   ar
     8     7     9   ar
     9     8    10   ar
    10     9    11    1
    11     9    12   ar
    12    10    13   ar
    13    11    14    1
    14    12    15   ar
    15    13    16   ar
    16     6     7   ar
    17    10    12   ar
    18    15    16   ar
    19     4    17    1
    20     6    18    1
    21     8    19    1
    22    14    20    1
    23    14    21    1
    24    14    22    1
    25    15    23    1
    26    16    24    1
@<TRIPOS>SUBSTRUCTURE
     1 UNL1        1 TEMP              0 ****  ****    0 ROOT


##########                                Name:                 116
##########                DOCK_Rotatable_Bonds:                   1
##########                         Heavy_Atoms:                  16
##########                    Molecular_Weight:             216.193
##########                       Formal_Charge:        -0.000100009
##########                     HBond_Acceptors:                   4
##########                        HBond_Donors:                   0
##########                    Descriptor_Score:           42.276489
##########          Footprint_Similarity_Score:           13.093669
##########                 desc_FPS_vdw_energy:          -29.344049
##########                  desc_FPS_es_energy:            0.567446
##########              desc_FPS_vdw+es_energy:          -28.776604
##########                  desc_FPS_num_hbond:                   2
##########                    desc_FPS_vdw_fps:           10.646618
##########                     desc_FPS_es_fps:            2.447051
##########                     desc_FPS_hb_fps:            1.414214
##########              desc_FPS_vdw_fp_numres:                 219
##########               desc_FPS_es_fp_numres:                 219
##########               desc_FPS_hb_fp_numres:                 219
##########                 Pharmacophore_Score:           20.000000
##########              desc_FMS_num_match_tot:                   0
##########              desc_FMS_max_match_ref:                  10
##########              desc_FMS_max_match_mol:                   7
##########                 desc_FMS_match_rate:            4.000000
##########                desc_FMS_match_resid:            0.000000
##########    desc_FMS_num_hydrophobic_matched:                   0
##########          desc_FMS_num_donor_matched:                   0
##########       desc_FMS_num_acceptor_matched:                   0
##########       desc_FMS_num_aromatic_matched:                   0
##########       desc_FMS_num_positive_matched:                   0
##########       desc_FMS_num_negative_matched:                   0
##########           desc_FMS_num_ring_matched:                   0
########## Hungarian_Matching_Similarity_Score:            9.182820
##########       desc_HMS_num_unmtchd_hvy_atms:                  11
##########           desc_HMS_num_ref_hvy_atms:                  23
##########        desc_HMS_rmsd_mtchd_hvy_atms:           11.791516
##########               Property_Volume_Score:            0.000000
##########               desc_VOS_geometric_vo:            0.000000
##########                desc_VOS_hvy_atom_vo:            0.000000
##########            desc_VOS_pos_chrg_atm_vo:            0.000000
##########            desc_VOS_neg_chrg_atm_vo:            0.000000
##########         desc_VOS_hydrophobic_atm_vo:            0.000000
##########         desc_VOS_hydrophilic_atm_vo:            0.000000
##########           Internal_energy_repulsive:            4.251109

@<TRIPOS>MOLECULE
116
 24 26 1 0 0
SMALL
GASTEIGER


@<TRIPOS>ATOM
      1 O          21.0273    7.8258   42.9676 O.2     1  UNL1       -0.2452
      2 C          21.6274    8.2885   42.0197 C.ar    1  UNL1        0.3372
      3 O          21.5839    7.7035   40.8007 O.2     1  UNL1       -0.4219
      4 C          22.4337    9.5121   42.0805 C.ar    1  UNL1        0.0237
      5 C          22.2580    8.1350   39.6720 C.ar    1  UNL1        0.1461
      6 C          23.0884   10.0459   40.9215 C.ar    1  UNL1       -0.0408
      7 C          22.9905    9.3858   39.6981 C.ar    1  UNL1        0.0600
      8 C          22.1973    7.2597   38.5290 C.ar    1  UNL1        0.0245
      9 C          23.5349    9.8327   38.4784 C.ar    1  UNL1        0.1414
     10 C          22.5092    7.8700   37.2630 C.ar    1  UNL1        0.1418
     11 O          24.2828   10.9729   38.1920 O.3     1  UNL1       -0.4937
     12 C          23.2846    9.0630   37.2831 C.ar    1  UNL1        0.0625
     13 O          22.8157    7.1573   36.1332 O.2     1  UNL1       -0.4627
     14 C          24.7719   11.9721   39.1114 C.3     1  UNL1        0.0788
     15 C          24.0572    9.0862   36.0841 C.ar    1  UNL1       -0.0126
     16 C          23.7030    7.9355   35.4174 C.ar    1  UNL1        0.0933
     17 H          22.4729    9.9976   43.0498 H       1  UNL1        0.0689
     18 H          23.6027   10.9819   41.0812 H       1  UNL1        0.0628
     19 H          21.6165    6.3458   38.4341 H       1  UNL1        0.0692
     20 H          25.3313   12.7207   38.5441 H       1  UNL1        0.0660
     21 H          25.4405   11.5074   39.8415 H       1  UNL1        0.0660
     22 H          23.9278   12.4587   39.6069 H       1  UNL1        0.0660
     23 H          24.8116    9.8146   35.8068 H       1  UNL1        0.0656
     24 H          24.0392    7.5009   34.4836 H       1  UNL1        0.1030
@<TRIPOS>BOND
     1     1     2    2
     2     2     3   ar
     3     2     4   ar
     4     3     5   ar
     5     4     6   ar
     6     5     7   ar
     7     5     8   ar
     8     7     9   ar
     9     8    10   ar
    10     9    11    1
    11     9    12   ar
    12    10    13   ar
    13    11    14    1
    14    12    15   ar
    15    13    16   ar
    16     6     7   ar
    17    10    12   ar
    18    15    16   ar
    19     4    17    1
    20     6    18    1
    21     8    19    1
    22    14    20    1
    23    14    21    1
    24    14    22    1
    25    15    23    1
    26    16    24    1
@<TRIPOS>SUBSTRUCTURE
     1 UNL1        1 TEMP              0 ****  ****    0 ROOT


##########                                Name:                 116
##########                DOCK_Rotatable_Bonds:                   1
##########                         Heavy_Atoms:                  16
##########                    Molecular_Weight:             216.193
##########                       Formal_Charge:        -0.000100009
##########                     HBond_Acceptors:                   4
##########                        HBond_Donors:                   0
##########                    Descriptor_Score:           42.451385
##########          Footprint_Similarity_Score:           13.078732
##########                 desc_FPS_vdw_energy:          -28.273340
##########                  desc_FPS_es_energy:           -0.044471
##########              desc_FPS_vdw+es_energy:          -28.317812
##########                  desc_FPS_num_hbond:                   2
##########                    desc_FPS_vdw_fps:           10.554553
##########                     desc_FPS_es_fps:            2.524179
##########                     desc_FPS_hb_fps:            1.414214
##########              desc_FPS_vdw_fp_numres:                 219
##########               desc_FPS_es_fp_numres:                 219
##########               desc_FPS_hb_fp_numres:                 219
##########                 Pharmacophore_Score:           20.000000
##########              desc_FMS_num_match_tot:                   0
##########              desc_FMS_max_match_ref:                  10
##########              desc_FMS_max_match_mol:                   7
##########                 desc_FMS_match_rate:            4.000000
##########                desc_FMS_match_resid:            0.000000
##########    desc_FMS_num_hydrophobic_matched:                   0
##########          desc_FMS_num_donor_matched:                   0
##########       desc_FMS_num_acceptor_matched:                   0
##########       desc_FMS_num_aromatic_matched:                   0
##########       desc_FMS_num_positive_matched:                   0
##########       desc_FMS_num_negative_matched:                   0
##########           desc_FMS_num_ring_matched:                   0
########## Hungarian_Matching_Similarity_Score:            9.372655
##########       desc_HMS_num_unmtchd_hvy_atms:                  11
##########           desc_HMS_num_ref_hvy_atms:                  23
##########        desc_HMS_rmsd_mtchd_hvy_atms:           11.981351
##########               Property_Volume_Score:            0.000000
##########               desc_VOS_geometric_vo:            0.000000
##########                desc_VOS_hvy_atom_vo:            0.000000
##########            desc_VOS_pos_chrg_atm_vo:            0.000000
##########            desc_VOS_neg_chrg_atm_vo:            0.000000
##########         desc_VOS_hydrophobic_atm_vo:            0.000000
##########         desc_VOS_hydrophilic_atm_vo:            0.000000
##########           Internal_energy_repulsive:            4.240556

@<TRIPOS>MOLECULE
116
 24 26 1 0 0
SMALL
GASTEIGER


@<TRIPOS>ATOM
      1 O          21.1630    7.5465   42.6810 O.2     1  UNL1       -0.2452
      2 C          21.7685    8.0495   41.7574 C.ar    1  UNL1        0.3372
      3 O          21.6076    7.6161   40.4861 O.2     1  UNL1       -0.4219
      4 C          22.7069    9.1667   41.9065 C.ar    1  UNL1        0.0237
      5 C          22.2753    8.1011   39.3755 C.ar    1  UNL1        0.1461
      6 C          23.3653    9.7585   40.7782 C.ar    1  UNL1       -0.0408
      7 C          23.1418    9.2570   39.4973 C.ar    1  UNL1        0.0600
      8 C          22.0685    7.3740   38.1488 C.ar    1  UNL1        0.0245
      9 C          23.6785    9.7814   38.3053 C.ar    1  UNL1        0.1414
     10 C          22.3903    8.0895   36.9417 C.ar    1  UNL1        0.1418
     11 O          24.5344   10.8623   38.1041 O.3     1  UNL1       -0.4937
     12 C          23.2928    9.1845   37.0489 C.ar    1  UNL1        0.0625
     13 O          22.5667    7.4830   35.7254 O.2     1  UNL1       -0.4627
     14 C          25.1567   11.7034   39.0981 C.3     1  UNL1        0.0788
     15 C          24.0102    9.2640   35.8184 C.ar    1  UNL1       -0.0126
     16 C          23.5023    8.2410   35.0506 C.ar    1  UNL1        0.0933
     17 H          22.8417    9.5311   42.9194 H       1  UNL1        0.0689
     18 H          23.9863   10.6109   41.0104 H       1  UNL1        0.0628
     19 H          21.3868    6.5430   37.9871 H       1  UNL1        0.0692
     20 H          25.7745   12.4460   38.5861 H       1  UNL1        0.0660
     21 H          25.7947   11.0981   39.7481 H       1  UNL1        0.0660
     22 H          24.3857   12.2196   39.6761 H       1  UNL1        0.0660
     23 H          24.8275    9.9364   35.5808 H       1  UNL1        0.0656
     24 H          23.7474    7.8835   34.0576 H       1  UNL1        0.1030
@<TRIPOS>BOND
     1     1     2    2
     2     2     3   ar
     3     2     4   ar
     4     3     5   ar
     5     4     6   ar
     6     5     7   ar
     7     5     8   ar
     8     7     9   ar
     9     8    10   ar
    10     9    11    1
    11     9    12   ar
    12    10    13   ar
    13    11    14    1
    14    12    15   ar
    15    13    16   ar
    16     6     7   ar
    17    10    12   ar
    18    15    16   ar
    19     4    17    1
    20     6    18    1
    21     8    19    1
    22    14    20    1
    23    14    21    1
    24    14    22    1
    25    15    23    1
    26    16    24    1
@<TRIPOS>SUBSTRUCTURE
     1 UNL1        1 TEMP              0 ****  ****    0 ROOT


##########                                Name:                 117
##########                DOCK_Rotatable_Bonds:                   3
##########                         Heavy_Atoms:                  20
##########                    Molecular_Weight:             268.269
##########                       Formal_Charge:        -0.000100031
##########                     HBond_Acceptors:                   4
##########                        HBond_Donors:                   1
##########                    Descriptor_Score:           13.306406
##########          Footprint_Similarity_Score:            6.331393
##########                 desc_FPS_vdw_energy:          -30.690094
##########                  desc_FPS_es_energy:           -2.097883
##########              desc_FPS_vdw+es_energy:          -32.787975
##########                  desc_FPS_num_hbond:                   1
##########                    desc_FPS_vdw_fps:            4.965120
##########                     desc_FPS_es_fps:            1.366273
##########                     desc_FPS_hb_fps:            1.000000
##########              desc_FPS_vdw_fp_numres:                 219
##########               desc_FPS_es_fp_numres:                 219
##########               desc_FPS_hb_fp_numres:                 219
##########                 Pharmacophore_Score:            6.633505
##########              desc_FMS_num_match_tot:                   1
##########              desc_FMS_max_match_ref:                  10
##########              desc_FMS_max_match_mol:                   8
##########                 desc_FMS_match_rate:            0.900000
##########                desc_FMS_match_resid:            2.133505
##########    desc_FMS_num_hydrophobic_matched:                   0
##########          desc_FMS_num_donor_matched:                   0
##########       desc_FMS_num_acceptor_matched:                   1
##########       desc_FMS_num_aromatic_matched:                   0
##########       desc_FMS_num_positive_matched:                   0
##########       desc_FMS_num_negative_matched:                   0
##########           desc_FMS_num_ring_matched:                   0
########## Hungarian_Matching_Similarity_Score:            0.594302
##########       desc_HMS_num_unmtchd_hvy_atms:                   7
##########           desc_HMS_num_ref_hvy_atms:                  23
##########        desc_HMS_rmsd_mtchd_hvy_atms:            4.072563
##########               Property_Volume_Score:            0.252794
##########               desc_VOS_geometric_vo:            0.367905
##########                desc_VOS_hvy_atom_vo:            0.385230
##########            desc_VOS_pos_chrg_atm_vo:            0.211991
##########            desc_VOS_neg_chrg_atm_vo:            0.142218
##########         desc_VOS_hydrophobic_atm_vo:            0.158857
##########         desc_VOS_hydrophilic_atm_vo:            0.250562
##########           Internal_energy_repulsive:            6.061727

@<TRIPOS>MOLECULE
117
 32 34 1 0 0
SMALL
GASTEIGER


@<TRIPOS>ATOM
      1 O          10.8841   10.9893   42.5269 O.2     1  UNL1       -0.2864
      2 C          11.0569   12.0702   43.0609 C.ar    1  UNL1        0.2001
      3 C          10.0641   13.1579   43.0403 C.ar    1  UNL1        0.0643
      4 C          12.2870   12.4093   43.7829 C.ar    1  UNL1        0.0648
      5 C           9.0807   13.0646   42.5297 C.ar    1  UNL1       -0.0110
      6 C          10.3124   14.3673   43.6616 C.ar    1  UNL1        0.1038
      7 C          12.4349   13.6567   44.3719 C.ar    1  UNL1        0.1419
      8 C          13.3856   11.4743   43.9077 C.ar    1  UNL1       -0.0439
      9 C           8.2283   11.9809   42.8199 C.ar    1  UNL1       -0.0504
     10 C           8.6474   14.0477   41.6190 C.ar    1  UNL1       -0.0504
     11 O          11.4826   14.6629   44.3446 O.2     1  UNL1       -0.4620
     12 C          13.6611   13.9612   45.0735 C.ar    1  UNL1        0.0228
     13 C          14.5571   11.7901   44.5859 C.ar    1  UNL1       -0.0193
     14 C           6.9785   11.8865   42.2097 C.ar    1  UNL1       -0.0194
     15 C           7.3962   13.9390   41.0161 C.ar    1  UNL1       -0.0194
     16 C          14.6979   13.0392   45.1729 C.ar    1  UNL1        0.1204
     17 C           6.5574   12.8661   41.3062 C.ar    1  UNL1        0.1201
     18 O          15.8472   13.3483   45.8394 O.3     1  UNL1       -0.5066
     19 O           5.3261   12.8240   40.6768 O.3     1  UNL1       -0.4951
     20 C           4.2363   13.7223   40.9899 C.3     1  UNL1        0.0788
     21 H           9.6503   15.2258   43.7025 H       1  UNL1        0.1037
     22 H          13.2833   10.4929   43.4512 H       1  UNL1        0.0627
     23 H           8.5252   11.2085   43.5274 H       1  UNL1        0.0625
     24 H           9.2727   14.9059   41.3783 H       1  UNL1        0.0625
     25 H          13.7525   14.9455   45.5266 H       1  UNL1        0.0691
     26 H          15.3590   11.0587   44.6552 H       1  UNL1        0.0654
     27 H           6.3408   11.0421   42.4546 H       1  UNL1        0.0654
     28 H           7.0680   14.7042   40.3168 H       1  UNL1        0.0654
     29 H          16.3386   12.5359   46.0589 H       1  UNL1        0.2921
     30 H           3.3901   13.4882   40.3383 H       1  UNL1        0.0660
     31 H           4.5525   14.7549   40.8179 H       1  UNL1        0.0660
     32 H           3.9393   13.5873   42.0334 H       1  UNL1        0.0660
@<TRIPOS>BOND
     1     1     2    2
     2     2     3   ar
     3     2     4   ar
     4     3     5    1
     5     3     6   ar
     6     4     7   ar
     7     4     8   ar
     8     5     9   ar
     9     5    10   ar
    10     6    11   ar
    11     7    12   ar
    12     8    13   ar
    13     9    14   ar
    14    10    15   ar
    15    12    16   ar
    16    14    17   ar
    17    16    18    1
    18    17    19    1
    19    19    20    1
    20     7    11   ar
    21    13    16   ar
    22    15    17   ar
    23     6    21    1
    24     8    22    1
    25     9    23    1
    26    10    24    1
    27    12    25    1
    28    13    26    1
    29    14    27    1
    30    15    28    1
    31    18    29    1
    32    20    30    1
    33    20    31    1
    34    20    32    1
@<TRIPOS>SUBSTRUCTURE
     1 UNL1        1 TEMP              0 ****  ****    0 ROOT


##########                                Name:                 117
##########                DOCK_Rotatable_Bonds:                   3
##########                         Heavy_Atoms:                  20
##########                    Molecular_Weight:             268.269
##########                       Formal_Charge:        -0.000100031
##########                     HBond_Acceptors:                   4
##########                        HBond_Donors:                   1
##########                    Descriptor_Score:           26.341341
##########          Footprint_Similarity_Score:            5.918869
##########                 desc_FPS_vdw_energy:          -28.487925
##########                  desc_FPS_es_energy:           -2.558137
##########              desc_FPS_vdw+es_energy:          -31.046062
##########                  desc_FPS_num_hbond:                   1
##########                    desc_FPS_vdw_fps:            4.918119
##########                     desc_FPS_es_fps:            1.000751
##########                     desc_FPS_hb_fps:            1.000000
##########              desc_FPS_vdw_fp_numres:                 219
##########               desc_FPS_es_fp_numres:                 219
##########               desc_FPS_hb_fp_numres:                 219
##########                 Pharmacophore_Score:           20.000000
##########              desc_FMS_num_match_tot:                   0
##########              desc_FMS_max_match_ref:                  10
##########              desc_FMS_max_match_mol:                   8
##########                 desc_FMS_match_rate:            4.000000
##########                desc_FMS_match_resid:            0.000000
##########    desc_FMS_num_hydrophobic_matched:                   0
##########          desc_FMS_num_donor_matched:                   0
##########       desc_FMS_num_acceptor_matched:                   0
##########       desc_FMS_num_aromatic_matched:                   0
##########       desc_FMS_num_positive_matched:                   0
##########       desc_FMS_num_negative_matched:                   0
##########           desc_FMS_num_ring_matched:                   0
########## Hungarian_Matching_Similarity_Score:            0.681459
##########       desc_HMS_num_unmtchd_hvy_atms:                   7
##########           desc_HMS_num_ref_hvy_atms:                  23
##########        desc_HMS_rmsd_mtchd_hvy_atms:            4.159720
##########               Property_Volume_Score:            0.258987
##########               desc_VOS_geometric_vo:            0.407813
##########                desc_VOS_hvy_atom_vo:            0.410959
##########            desc_VOS_pos_chrg_atm_vo:            0.225506
##########            desc_VOS_neg_chrg_atm_vo:            0.162512
##########         desc_VOS_hydrophobic_atm_vo:            0.186489
##########         desc_VOS_hydrophilic_atm_vo:            0.160643
##########           Internal_energy_repulsive:            5.237901

@<TRIPOS>MOLECULE
117
 32 34 1 0 0
SMALL
GASTEIGER


@<TRIPOS>ATOM
      1 O          10.1534   10.9045   43.0829 O.2     1  UNL1       -0.2864
      2 C          10.5041   11.9927   43.5025 C.ar    1  UNL1        0.2001
      3 C           9.5898   13.1350   43.6710 C.ar    1  UNL1        0.0643
      4 C          11.8894   12.2863   43.8823 C.ar    1  UNL1        0.0648
      5 C           8.5073   13.0802   43.4228 C.ar    1  UNL1       -0.0110
      6 C          10.0413   14.3503   44.1501 C.ar    1  UNL1        0.1038
      7 C          12.2376   13.5440   44.3528 C.ar    1  UNL1        0.1419
      8 C          12.9391   11.2940   43.7810 C.ar    1  UNL1       -0.0439
      9 C           8.0879   13.0119   42.0794 C.ar    1  UNL1       -0.0504
     10 C           7.5374   13.0321   44.4429 C.ar    1  UNL1       -0.0504
     11 O          11.3569   14.6024   44.5090 O.2     1  UNL1       -0.4620
     12 C          13.6124   13.8026   44.7156 C.ar    1  UNL1        0.0228
     13 C          14.2557   11.5660   44.1339 C.ar    1  UNL1       -0.0193
     14 C           6.7330   12.9023   41.7706 C.ar    1  UNL1       -0.0194
     15 C           6.1869   12.9236   44.1186 C.ar    1  UNL1       -0.0194
     16 C          14.5966   12.8259   44.6042 C.ar    1  UNL1        0.1204
     17 C           5.7774   12.8565   42.7895 C.ar    1  UNL1        0.1201
     18 O          15.8885   13.0921   44.9516 O.3     1  UNL1       -0.5066
     19 O           4.4215   12.7430   42.5392 O.3     1  UNL1       -0.4951
     20 C           3.4127   12.7555   43.5760 C.3     1  UNL1        0.0788
     21 H           9.4514   15.2470   44.3086 H       1  UNL1        0.1037
     22 H          12.6806   10.3037   43.4140 H       1  UNL1        0.0627
     23 H           8.8103   13.0348   41.2652 H       1  UNL1        0.0625
     24 H           7.8232   13.0702   45.4928 H       1  UNL1        0.0625
     25 H          13.8597   14.7962   45.0818 H       1  UNL1        0.0691
     26 H          15.0143   10.7921   44.0413 H       1  UNL1        0.0654
     27 H           6.4386   12.8482   40.7265 H       1  UNL1        0.0654
     28 H           5.4448   12.8836   44.9124 H       1  UNL1        0.0654
     29 H          16.4528   12.3187   44.7698 H       1  UNL1        0.2921
     30 H           2.4280   12.6700   43.1087 H       1  UNL1        0.0660
     31 H           3.4708   13.6955   44.1316 H       1  UNL1        0.0660
     32 H           3.5698   11.9087   44.2494 H       1  UNL1        0.0660
@<TRIPOS>BOND
     1     1     2    2
     2     2     3   ar
     3     2     4   ar
     4     3     5    1
     5     3     6   ar
     6     4     7   ar
     7     4     8   ar
     8     5     9   ar
     9     5    10   ar
    10     6    11   ar
    11     7    12   ar
    12     8    13   ar
    13     9    14   ar
    14    10    15   ar
    15    12    16   ar
    16    14    17   ar
    17    16    18    1
    18    17    19    1
    19    19    20    1
    20     7    11   ar
    21    13    16   ar
    22    15    17   ar
    23     6    21    1
    24     8    22    1
    25     9    23    1
    26    10    24    1
    27    12    25    1
    28    13    26    1
    29    14    27    1
    30    15    28    1
    31    18    29    1
    32    20    30    1
    33    20    31    1
    34    20    32    1
@<TRIPOS>SUBSTRUCTURE
     1 UNL1        1 TEMP              0 ****  ****    0 ROOT


##########                                Name:                 117
##########                DOCK_Rotatable_Bonds:                   3
##########                         Heavy_Atoms:                  20
##########                    Molecular_Weight:             268.269
##########                       Formal_Charge:        -0.000100031
##########                     HBond_Acceptors:                   4
##########                        HBond_Donors:                   1
##########                    Descriptor_Score:           27.049803
##########          Footprint_Similarity_Score:            6.643661
##########                 desc_FPS_vdw_energy:          -27.833832
##########                  desc_FPS_es_energy:           -2.985678
##########              desc_FPS_vdw+es_energy:          -30.819510
##########                  desc_FPS_num_hbond:                   1
##########                    desc_FPS_vdw_fps:            5.520783
##########                     desc_FPS_es_fps:            1.122877
##########                     desc_FPS_hb_fps:            1.000000
##########              desc_FPS_vdw_fp_numres:                 219
##########               desc_FPS_es_fp_numres:                 219
##########               desc_FPS_hb_fp_numres:                 219
##########                 Pharmacophore_Score:           20.000000
##########              desc_FMS_num_match_tot:                   0
##########              desc_FMS_max_match_ref:                  10
##########              desc_FMS_max_match_mol:                   8
##########                 desc_FMS_match_rate:            4.000000
##########                desc_FMS_match_resid:            0.000000
##########    desc_FMS_num_hydrophobic_matched:                   0
##########          desc_FMS_num_donor_matched:                   0
##########       desc_FMS_num_acceptor_matched:                   0
##########       desc_FMS_num_aromatic_matched:                   0
##########       desc_FMS_num_positive_matched:                   0
##########       desc_FMS_num_negative_matched:                   0
##########           desc_FMS_num_ring_matched:                   0
########## Hungarian_Matching_Similarity_Score:            0.642259
##########       desc_HMS_num_unmtchd_hvy_atms:                   7
##########           desc_HMS_num_ref_hvy_atms:                  23
##########        desc_HMS_rmsd_mtchd_hvy_atms:            4.120519
##########               Property_Volume_Score:            0.236115
##########               desc_VOS_geometric_vo:            0.364065
##########                desc_VOS_hvy_atom_vo:            0.392083
##########            desc_VOS_pos_chrg_atm_vo:            0.190878
##########            desc_VOS_neg_chrg_atm_vo:            0.139982
##########         desc_VOS_hydrophobic_atm_vo:            0.162404
##########         desc_VOS_hydrophilic_atm_vo:            0.167280
##########           Internal_energy_repulsive:            5.926002

@<TRIPOS>MOLECULE
117
 32 34 1 0 0
SMALL
GASTEIGER


@<TRIPOS>ATOM
      1 O          10.1894   10.8157   43.0668 O.2     1  UNL1       -0.2864
      2 C          10.6390   11.9423   43.1764 C.ar    1  UNL1        0.2001
      3 C           9.8569   13.1618   42.9111 C.ar    1  UNL1        0.0643
      4 C          12.0227   12.2068   43.5822 C.ar    1  UNL1        0.0648
      5 C           8.7931   13.1353   42.5884 C.ar    1  UNL1       -0.0110
      6 C          10.4176   14.4175   43.0492 C.ar    1  UNL1        0.1038
      7 C          12.4866   13.5099   43.6898 C.ar    1  UNL1        0.1419
      8 C          12.9525   11.1374   43.8799 C.ar    1  UNL1       -0.0439
      9 C           8.3959   13.7684   41.3940 C.ar    1  UNL1       -0.0504
     10 C           7.8312   12.4327   43.3399 C.ar    1  UNL1       -0.0504
     11 O          11.7287   14.6429   43.4408 O.2     1  UNL1       -0.4620
     12 C          13.8569   13.7370   44.0888 C.ar    1  UNL1        0.0228
     13 C          14.2673   11.3798   44.2599 C.ar    1  UNL1       -0.0193
     14 C           7.0699   13.7001   40.9695 C.ar    1  UNL1       -0.0194
     15 C           6.5095   12.3744   42.9033 C.ar    1  UNL1       -0.0194
     16 C          14.7242   12.6854   44.3660 C.ar    1  UNL1        0.1204
     17 C           6.1219   13.0017   41.7223 C.ar    1  UNL1        0.1201
     18 O          16.0142   12.9229   44.7402 O.3     1  UNL1       -0.5066
     19 O           4.7950   12.8981   41.3446 O.3     1  UNL1       -0.4951
     20 C           4.1178   13.8783   40.5241 C.3     1  UNL1        0.0788
     21 H           9.9288   15.3708   42.8780 H       1  UNL1        0.1037
     22 H          12.6025   10.1111   43.7999 H       1  UNL1        0.0627
     23 H           9.1144   14.3107   40.7817 H       1  UNL1        0.0625
     24 H           8.1021   11.9208   44.2618 H       1  UNL1        0.0625
     25 H          14.1962   14.7673   44.1659 H       1  UNL1        0.0691
     26 H          14.9337   10.5472   44.4735 H       1  UNL1        0.0654
     27 H           6.7926   14.1947   40.0431 H       1  UNL1        0.0654
     28 H           5.7740   11.8268   43.4877 H       1  UNL1        0.0654
     29 H          16.5121   12.0863   44.7842 H       1  UNL1        0.2921
     30 H           3.0887   13.5477   40.3596 H       1  UNL1        0.0660
     31 H           4.6295   13.9660   39.5617 H       1  UNL1        0.0660
     32 H           4.1114   14.8435   41.0376 H       1  UNL1        0.0660
@<TRIPOS>BOND
     1     1     2    2
     2     2     3   ar
     3     2     4   ar
     4     3     5    1
     5     3     6   ar
     6     4     7   ar
     7     4     8   ar
     8     5     9   ar
     9     5    10   ar
    10     6    11   ar
    11     7    12   ar
    12     8    13   ar
    13     9    14   ar
    14    10    15   ar
    15    12    16   ar
    16    14    17   ar
    17    16    18    1
    18    17    19    1
    19    19    20    1
    20     7    11   ar
    21    13    16   ar
    22    15    17   ar
    23     6    21    1
    24     8    22    1
    25     9    23    1
    26    10    24    1
    27    12    25    1
    28    13    26    1
    29    14    27    1
    30    15    28    1
    31    18    29    1
    32    20    30    1
    33    20    31    1
    34    20    32    1
@<TRIPOS>SUBSTRUCTURE
     1 UNL1        1 TEMP              0 ****  ****    0 ROOT


##########                                Name:                 119
##########                DOCK_Rotatable_Bonds:                   4
##########                         Heavy_Atoms:                  20
##########                    Molecular_Weight:             270.241
##########                       Formal_Charge:         0.000100017
##########                     HBond_Acceptors:                   5
##########                        HBond_Donors:                   3
##########                    Descriptor_Score:           27.236500
##########          Footprint_Similarity_Score:            7.391215
##########                 desc_FPS_vdw_energy:          -25.988138
##########                  desc_FPS_es_energy:           -5.736739
##########              desc_FPS_vdw+es_energy:          -31.724876
##########                  desc_FPS_num_hbond:                   1
##########                    desc_FPS_vdw_fps:            5.007926
##########                     desc_FPS_es_fps:            2.383290
##########                     desc_FPS_hb_fps:            1.000000
##########              desc_FPS_vdw_fp_numres:                 219
##########               desc_FPS_es_fp_numres:                 219
##########               desc_FPS_hb_fp_numres:                 219
##########                 Pharmacophore_Score:           20.000000
##########              desc_FMS_num_match_tot:                   0
##########              desc_FMS_max_match_ref:                  10
##########              desc_FMS_max_match_mol:                  11
##########                 desc_FMS_match_rate:            4.000000
##########                desc_FMS_match_resid:            0.000000
##########    desc_FMS_num_hydrophobic_matched:                   0
##########          desc_FMS_num_donor_matched:                   0
##########       desc_FMS_num_acceptor_matched:                   0
##########       desc_FMS_num_aromatic_matched:                   0
##########       desc_FMS_num_positive_matched:                   0
##########       desc_FMS_num_negative_matched:                   0
##########           desc_FMS_num_ring_matched:                   0
########## Hungarian_Matching_Similarity_Score:            0.094040
##########       desc_HMS_num_unmtchd_hvy_atms:                   9
##########           desc_HMS_num_ref_hvy_atms:                  23
##########        desc_HMS_rmsd_mtchd_hvy_atms:            3.137518
##########               Property_Volume_Score:            0.248756
##########               desc_VOS_geometric_vo:            0.369765
##########                desc_VOS_hvy_atom_vo:            0.401375
##########            desc_VOS_pos_chrg_atm_vo:            0.228077
##########            desc_VOS_neg_chrg_atm_vo:            0.105924
##########         desc_VOS_hydrophobic_atm_vo:            0.135993
##########         desc_VOS_hydrophilic_atm_vo:            0.251404
##########           Internal_energy_repulsive:            4.811464

@<TRIPOS>MOLECULE
119
 30 32 1 0 0
SMALL
GASTEIGER


@<TRIPOS>ATOM
      1 O          10.3269   11.0583   42.6736 O.2     1  UNL1       -0.2863
      2 C          10.6261   12.1550   43.1131 C.ar    1  UNL1        0.2037
      3 C          11.9137   12.4266   43.7926 C.ar    1  UNL1        0.1060
      4 C           9.7111   13.3122   43.0323 C.ar    1  UNL1        0.0644
      5 C          12.1913   13.7020   44.2676 C.ar    1  UNL1        0.1454
      6 C          12.9334   11.4065   44.0102 C.ar    1  UNL1        0.1347
      7 C           8.6847   13.2396   42.5802 C.ar    1  UNL1       -0.0110
      8 C          10.1008   14.5380   43.5404 C.ar    1  UNL1        0.1038
      9 O          11.3420   14.7914   44.1183 O.2     1  UNL1       -0.4618
     10 C          13.4543   13.9509   44.9454 C.ar    1  UNL1        0.0231
     11 O          12.7704   10.1316   43.5758 O.3     1  UNL1       -0.5058
     12 C          14.1252   11.6737   44.6672 C.ar    1  UNL1        0.0223
     13 C           8.3149   13.8680   41.3700 C.ar    1  UNL1       -0.0504
     14 C           7.7158   12.4384   43.2225 C.ar    1  UNL1       -0.0504
     15 C          14.3993   12.9422   45.1408 C.ar    1  UNL1        0.1239
     16 C           7.0329   13.6986   40.8294 C.ar    1  UNL1       -0.0196
     17 C           6.4399   12.2804   42.6724 C.ar    1  UNL1       -0.0196
     18 O          15.5987   13.1350   45.7760 O.3     1  UNL1       -0.5065
     19 C           6.0860   12.9014   41.4744 C.ar    1  UNL1        0.1169
     20 O           4.8175   12.7081   40.9695 O.3     1  UNL1       -0.5068
     21 H           9.5152   15.4510   43.5454 H       1  UNL1        0.1037
     22 H          13.6460   14.9600   45.3024 H       1  UNL1        0.0691
     23 H          13.5731    9.6559   43.8449 H       1  UNL1        0.2922
     24 H          14.8539   10.8776   44.8086 H       1  UNL1        0.0691
     25 H           9.0283   14.4880   40.8310 H       1  UNL1        0.0625
     26 H           7.9457   11.9198   44.1520 H       1  UNL1        0.0625
     27 H           6.7784   14.1917   39.8944 H       1  UNL1        0.0654
     28 H           5.7136   11.6541   43.1856 H       1  UNL1        0.0654
     29 H          15.9138   12.3611   46.2676 H       1  UNL1        0.2921
     30 H           4.5380   13.3232   40.2527 H       1  UNL1        0.2921
@<TRIPOS>BOND
     1     1     2    2
     2     2     3   ar
     3     2     4   ar
     4     3     5   ar
     5     3     6   ar
     6     4     7    1
     7     4     8   ar
     8     5     9   ar
     9     5    10   ar
    10     6    11    1
    11     6    12   ar
    12     7    13   ar
    13     7    14   ar
    14    10    15   ar
    15    13    16   ar
    16    14    17   ar
    17    15    18    1
    18    16    19   ar
    19    19    20    1
    20     8     9   ar
    21    12    15   ar
    22    17    19   ar
    23     8    21    1
    24    10    22    1
    25    11    23    1
    26    12    24    1
    27    13    25    1
    28    14    26    1
    29    16    27    1
    30    17    28    1
    31    18    29    1
    32    20    30    1
@<TRIPOS>SUBSTRUCTURE
     1 UNL1        1 TEMP              0 ****  ****    0 ROOT


##########                                Name:                 119
##########                DOCK_Rotatable_Bonds:                   4
##########                         Heavy_Atoms:                  20
##########                    Molecular_Weight:             270.241
##########                       Formal_Charge:         0.000100017
##########                     HBond_Acceptors:                   5
##########                        HBond_Donors:                   3
##########                    Descriptor_Score:           26.605066
##########          Footprint_Similarity_Score:            6.707979
##########                 desc_FPS_vdw_energy:          -26.217415
##########                  desc_FPS_es_energy:           -5.159636
##########              desc_FPS_vdw+es_energy:          -31.377050
##########                  desc_FPS_num_hbond:                   2
##########                    desc_FPS_vdw_fps:            4.985719
##########                     desc_FPS_es_fps:            1.722260
##########                     desc_FPS_hb_fps:            1.414214
##########              desc_FPS_vdw_fp_numres:                 219
##########               desc_FPS_es_fp_numres:                 219
##########               desc_FPS_hb_fp_numres:                 219
##########                 Pharmacophore_Score:           20.000000
##########              desc_FMS_num_match_tot:                   0
##########              desc_FMS_max_match_ref:                  10
##########              desc_FMS_max_match_mol:                  11
##########                 desc_FMS_match_rate:            4.000000
##########                desc_FMS_match_resid:            0.000000
##########    desc_FMS_num_hydrophobic_matched:                   0
##########          desc_FMS_num_donor_matched:                   0
##########       desc_FMS_num_acceptor_matched:                   0
##########       desc_FMS_num_aromatic_matched:                   0
##########       desc_FMS_num_positive_matched:                   0
##########       desc_FMS_num_negative_matched:                   0
##########           desc_FMS_num_ring_matched:                   0
########## Hungarian_Matching_Similarity_Score:            0.150672
##########       desc_HMS_num_unmtchd_hvy_atms:                   9
##########           desc_HMS_num_ref_hvy_atms:                  23
##########        desc_HMS_rmsd_mtchd_hvy_atms:            3.194150
##########               Property_Volume_Score:            0.253583
##########               desc_VOS_geometric_vo:            0.381717
##########                desc_VOS_hvy_atom_vo:            0.407949
##########            desc_VOS_pos_chrg_atm_vo:            0.230905
##########            desc_VOS_neg_chrg_atm_vo:            0.110771
##########         desc_VOS_hydrophobic_atm_vo:            0.144208
##########         desc_VOS_hydrophilic_atm_vo:            0.245948
##########           Internal_energy_repulsive:            3.772360

@<TRIPOS>MOLECULE
119
 30 32 1 0 0
SMALL
GASTEIGER


@<TRIPOS>ATOM
      1 O          10.1450   11.1249   42.7183 O.2     1  UNL1       -0.2863
      2 C          10.4113   12.2149   43.1939 C.ar    1  UNL1        0.2037
      3 C          11.7089   12.5161   43.8411 C.ar    1  UNL1        0.1060
      4 C           9.4444   13.3320   43.1929 C.ar    1  UNL1        0.0644
      5 C          11.9471   13.7821   44.3605 C.ar    1  UNL1        0.1454
      6 C          12.7791   11.5349   43.9810 C.ar    1  UNL1        0.1347
      7 C           8.4069   13.2319   42.7725 C.ar    1  UNL1       -0.0110
      8 C           9.7979   14.5522   43.7395 C.ar    1  UNL1        0.1038
      9 O          11.0463   14.8374   44.2862 O.2     1  UNL1       -0.4618
     10 C          13.2211   14.0596   45.0059 C.ar    1  UNL1        0.0231
     11 O          12.6568   10.2728   43.4984 O.3     1  UNL1       -0.5058
     12 C          13.9805   11.8284   44.6088 C.ar    1  UNL1        0.0223
     13 C           7.3037   12.7518   43.5132 C.ar    1  UNL1       -0.0504
     14 C           8.1692   13.6527   41.4460 C.ar    1  UNL1       -0.0504
     15 C          14.2155   13.0874   45.1267 C.ar    1  UNL1        0.1239
     16 C           6.0220   12.6979   42.9489 C.ar    1  UNL1       -0.0196
     17 C           6.8852   13.5910   40.8954 C.ar    1  UNL1       -0.0196
     18 O          15.4269   13.3078   45.7292 O.3     1  UNL1       -0.5065
     19 C           5.8016   13.1195   41.6367 C.ar    1  UNL1        0.1169
     20 O           4.5538   13.0856   41.0508 O.3     1  UNL1       -0.5068
     21 H           9.1735   15.4369   43.8029 H       1  UNL1        0.1037
     22 H          13.3809   15.0608   45.3991 H       1  UNL1        0.0691
     23 H          13.5268    9.8585   43.6179 H       1  UNL1        0.2922
     24 H          14.7477   11.0607   44.6919 H       1  UNL1        0.0691
     25 H           7.4323   12.4247   44.5430 H       1  UNL1        0.0625
     26 H           8.9777   14.0428   40.8295 H       1  UNL1        0.0625
     27 H           5.1915   12.3270   43.5447 H       1  UNL1        0.0654
     28 H           6.7289   13.9254   39.8723 H       1  UNL1        0.0654
     29 H          15.9701   12.5107   45.8264 H       1  UNL1        0.2921
     30 H           4.4443   13.6235   40.2329 H       1  UNL1        0.2921
@<TRIPOS>BOND
     1     1     2    2
     2     2     3   ar
     3     2     4   ar
     4     3     5   ar
     5     3     6   ar
     6     4     7    1
     7     4     8   ar
     8     5     9   ar
     9     5    10   ar
    10     6    11    1
    11     6    12   ar
    12     7    13   ar
    13     7    14   ar
    14    10    15   ar
    15    13    16   ar
    16    14    17   ar
    17    15    18    1
    18    16    19   ar
    19    19    20    1
    20     8     9   ar
    21    12    15   ar
    22    17    19   ar
    23     8    21    1
    24    10    22    1
    25    11    23    1
    26    12    24    1
    27    13    25    1
    28    14    26    1
    29    16    27    1
    30    17    28    1
    31    18    29    1
    32    20    30    1
@<TRIPOS>SUBSTRUCTURE
     1 UNL1        1 TEMP              0 ****  ****    0 ROOT


##########                                Name:                 119
##########                DOCK_Rotatable_Bonds:                   4
##########                         Heavy_Atoms:                  20
##########                    Molecular_Weight:             270.241
##########                       Formal_Charge:         0.000100017
##########                     HBond_Acceptors:                   5
##########                        HBond_Donors:                   3
##########                    Descriptor_Score:           25.629818
##########          Footprint_Similarity_Score:            6.021379
##########                 desc_FPS_vdw_energy:          -28.131872
##########                  desc_FPS_es_energy:           -3.760619
##########              desc_FPS_vdw+es_energy:          -31.892490
##########                  desc_FPS_num_hbond:                   1
##########                    desc_FPS_vdw_fps:            4.443681
##########                     desc_FPS_es_fps:            1.577698
##########                     desc_FPS_hb_fps:            1.000000
##########              desc_FPS_vdw_fp_numres:                 219
##########               desc_FPS_es_fp_numres:                 219
##########               desc_FPS_hb_fp_numres:                 219
##########                 Pharmacophore_Score:           20.000000
##########              desc_FMS_num_match_tot:                   0
##########              desc_FMS_max_match_ref:                  10
##########              desc_FMS_max_match_mol:                  11
##########                 desc_FMS_match_rate:            4.000000
##########                desc_FMS_match_resid:            0.000000
##########    desc_FMS_num_hydrophobic_matched:                   0
##########          desc_FMS_num_donor_matched:                   0
##########       desc_FMS_num_acceptor_matched:                   0
##########       desc_FMS_num_aromatic_matched:                   0
##########       desc_FMS_num_positive_matched:                   0
##########       desc_FMS_num_negative_matched:                   0
##########           desc_FMS_num_ring_matched:                   0
########## Hungarian_Matching_Similarity_Score:           -0.125107
##########       desc_HMS_num_unmtchd_hvy_atms:                   9
##########           desc_HMS_num_ref_hvy_atms:                  23
##########        desc_HMS_rmsd_mtchd_hvy_atms:            2.918371
##########               Property_Volume_Score:            0.266454
##########               desc_VOS_geometric_vo:            0.409236
##########                desc_VOS_hvy_atom_vo:            0.434534
##########            desc_VOS_pos_chrg_atm_vo:            0.236762
##########            desc_VOS_neg_chrg_atm_vo:            0.128975
##########         desc_VOS_hydrophobic_atm_vo:            0.170920
##########         desc_VOS_hydrophilic_atm_vo:            0.218297
##########           Internal_energy_repulsive:            3.807258

@<TRIPOS>MOLECULE
119
 30 32 1 0 0
SMALL
GASTEIGER


@<TRIPOS>ATOM
      1 O          10.5368   11.1292   43.1094 O.2     1  UNL1       -0.2863
      2 C          10.8545   12.2525   43.4598 C.ar    1  UNL1        0.2037
      3 C          12.1894   12.5762   44.0135 C.ar    1  UNL1        0.1060
      4 C           9.9185   13.3935   43.3899 C.ar    1  UNL1        0.0644
      5 C          12.4858   13.8797   44.3908 C.ar    1  UNL1        0.1454
      6 C          13.2389   11.5810   44.2030 C.ar    1  UNL1        0.1347
      7 C           8.8596   13.2843   43.0294 C.ar    1  UNL1       -0.0110
      8 C          10.3301   14.6505   43.7936 C.ar    1  UNL1        0.1038
      9 O          11.6107   14.9498   44.2512 O.2     1  UNL1       -0.4618
     10 C          13.7964   14.1804   44.9462 C.ar    1  UNL1        0.0231
     11 O          13.0600   10.2815   43.8565 O.3     1  UNL1       -0.5058
     12 C          14.4766   11.8981   44.7426 C.ar    1  UNL1        0.0223
     13 C           8.4786   13.3871   41.6727 C.ar    1  UNL1       -0.0504
     14 C           7.8514   12.9783   43.9692 C.ar    1  UNL1       -0.0504
     15 C          14.7695   13.1946   45.1192 C.ar    1  UNL1        0.1239
     16 C           7.1483   13.1904   41.2781 C.ar    1  UNL1       -0.0196
     17 C           6.5276   12.7869   43.5611 C.ar    1  UNL1       -0.0196
     18 O          16.0140   13.4362   45.6406 O.3     1  UNL1       -0.5065
     19 C           6.1625   12.8861   42.2183 C.ar    1  UNL1        0.1169
     20 O           4.8453   12.6812   41.8660 O.3     1  UNL1       -0.5068
     21 H           9.7331   15.5561   43.7956 H       1  UNL1        0.1037
     22 H          14.0015   15.2103   45.2284 H       1  UNL1        0.0691
     23 H          13.9461    9.8841   43.8541 H       1  UNL1        0.2922
     24 H          15.2264   11.1191   44.8678 H       1  UNL1        0.0691
     25 H           9.2197   13.6113   40.9081 H       1  UNL1        0.0625
     26 H           8.0860   12.8749   45.0275 H       1  UNL1        0.0625
     27 H           6.8858   13.2723   40.2262 H       1  UNL1        0.0654
     28 H           5.7712   12.5481   44.3052 H       1  UNL1        0.0654
     29 H          16.5986   12.6627   45.6411 H       1  UNL1        0.2921
     30 H           4.6367   12.7561   40.9062 H       1  UNL1        0.2921
@<TRIPOS>BOND
     1     1     2    2
     2     2     3   ar
     3     2     4   ar
     4     3     5   ar
     5     3     6   ar
     6     4     7    1
     7     4     8   ar
     8     5     9   ar
     9     5    10   ar
    10     6    11    1
    11     6    12   ar
    12     7    13   ar
    13     7    14   ar
    14    10    15   ar
    15    13    16   ar
    16    14    17   ar
    17    15    18    1
    18    16    19   ar
    19    19    20    1
    20     8     9   ar
    21    12    15   ar
    22    17    19   ar
    23     8    21    1
    24    10    22    1
    25    11    23    1
    26    12    24    1
    27    13    25    1
    28    14    26    1
    29    16    27    1
    30    17    28    1
    31    18    29    1
    32    20    30    1
@<TRIPOS>SUBSTRUCTURE
     1 UNL1        1 TEMP              0 ****  ****    0 ROOT


##########                                Name:                 120
##########                DOCK_Rotatable_Bonds:                   7
##########                         Heavy_Atoms:                  40
##########                    Molecular_Weight:             542.718
##########                       Formal_Charge:         0.000700511
##########                     HBond_Acceptors:                   6
##########                        HBond_Donors:                   0
##########                    Descriptor_Score:           34.329750
##########          Footprint_Similarity_Score:            7.604327
##########                 desc_FPS_vdw_energy:          -40.852287
##########                  desc_FPS_es_energy:           -1.238194
##########              desc_FPS_vdw+es_energy:          -42.090481
##########                  desc_FPS_num_hbond:                   0
##########                    desc_FPS_vdw_fps:            6.188057
##########                     desc_FPS_es_fps:            1.416271
##########                     desc_FPS_hb_fps:            0.000000
##########              desc_FPS_vdw_fp_numres:                 219
##########               desc_FPS_es_fp_numres:                 219
##########               desc_FPS_hb_fp_numres:                 219
##########                 Pharmacophore_Score:           20.000000
##########              desc_FMS_num_match_tot:                   0
##########              desc_FMS_max_match_ref:                  10
##########              desc_FMS_max_match_mol:                  13
##########                 desc_FMS_match_rate:            4.000000
##########                desc_FMS_match_resid:            0.000000
##########    desc_FMS_num_hydrophobic_matched:                   0
##########          desc_FMS_num_donor_matched:                   0
##########       desc_FMS_num_acceptor_matched:                   0
##########       desc_FMS_num_aromatic_matched:                   0
##########       desc_FMS_num_positive_matched:                   0
##########       desc_FMS_num_negative_matched:                   0
##########           desc_FMS_num_ring_matched:                   0
########## Hungarian_Matching_Similarity_Score:            6.957153
##########       desc_HMS_num_unmtchd_hvy_atms:                  29
##########           desc_HMS_num_ref_hvy_atms:                  23
##########        desc_HMS_rmsd_mtchd_hvy_atms:            5.652805
##########               Property_Volume_Score:            0.231730
##########               desc_VOS_geometric_vo:            0.320148
##########                desc_VOS_hvy_atom_vo:            0.305419
##########            desc_VOS_pos_chrg_atm_vo:            0.152713
##########            desc_VOS_neg_chrg_atm_vo:            0.286873
##########         desc_VOS_hydrophobic_atm_vo:            0.310987
##########         desc_VOS_hydrophilic_atm_vo:            0.014239
##########           Internal_energy_repulsive:           41.916508

@<TRIPOS>MOLECULE
120
 82 88 1 0 0
SMALL
GASTEIGER


@<TRIPOS>ATOM
      1 O           4.8872   12.9893   45.9954 O.2     1  UNL1       -0.2495
      2 C           5.1856   13.5491   44.9560 C.2     1  UNL1        0.3224
      3 O           4.4025   14.5513   44.4397 O.3     1  UNL1       -0.4604
      4 C           6.3657   13.1390   44.1198 C.3     1  UNL1        0.1177
      5 C           3.2031   14.9486   45.1855 C.3     1  UNL1        0.1060
      6 C           6.1604   13.6448   42.7463 C.ar    1  UNL1       -0.0223
      7 C           6.5221   11.6854   43.8628 C.ar    1  UNL1       -0.0263
      8 C           7.5885   13.6575   44.8883 C.3     1  UNL1       -0.0280
      9 C           3.5225   15.4421   46.6213 C.3     1  UNL1        0.0000
     10 C           2.1147   13.8328   45.2931 C.3     1  UNL1        0.0000
     11 C           7.1203   14.4701   42.1361 C.ar    1  UNL1       -0.0291
     12 C           5.0153   13.3269   41.9926 C.ar    1  UNL1       -0.0569
     13 C           7.7405   11.0580   43.5124 C.ar    1  UNL1       -0.0572
     14 C           5.4778   10.8286   44.2648 C.ar    1  UNL1       -0.0572
     15 C           8.1824   14.9696   44.3480 C.3     1  UNL1       -0.0344
     16 C           2.2102   15.8819   47.3565 C.3     1  UNL1        0.0138
     17 C           0.9767   14.2442   46.2999 C.3     1  UNL1        0.0138
     18 C           6.9712   14.9346   40.8323 C.ar    1  UNL1       -0.0575
     19 C           8.3184   14.7750   42.8521 C.3     1  UNL1        0.0817
     20 C           4.8694   13.7748   40.6826 C.ar    1  UNL1       -0.0614
     21 C           7.8750    9.6702   43.5076 C.ar    1  UNL1       -0.0615
     22 C           5.6097    9.4417   44.2539 C.ar    1  UNL1       -0.0615
     23 N           1.0331   15.7167   46.4571 N.3     1  UNL1       -0.2992
     24 C           1.9019   14.8862   48.4899 C.3     1  UNL1       -0.0358
     25 C           1.2145   13.7219   47.7465 C.3     1  UNL1       -0.0358
     26 C           5.8498   14.5782   40.0937 C.ar    1  UNL1       -0.0615
     27 C           9.5500   14.0541   42.4571 C.2     1  UNL1        0.3148
     28 C           6.8110    8.8579   43.8763 C.ar    1  UNL1       -0.0617
     29 C          -0.2204   16.3626   46.9172 C.3     1  UNL1       -0.0122
     30 O           9.7308   13.6181   41.3359 O.2     1  UNL1       -0.2502
     31 O          10.4311   13.8830   43.4695 O.3     1  UNL1       -0.4608
     32 C          11.8729   13.8891   43.2840 C.3     1  UNL1        0.1059
     33 C          12.4729   12.4830   43.0098 C.3     1  UNL1        0.0000
     34 C          12.6363   14.6224   44.4282 C.3     1  UNL1        0.0000
     35 C          14.0320   12.5595   42.8873 C.3     1  UNL1        0.0138
     36 C          14.1732   14.3579   44.3364 C.3     1  UNL1        0.0138
     37 N          14.4806   13.9785   42.9360 N.3     1  UNL1       -0.2992
     38 C          14.6836   11.9628   44.1506 C.3     1  UNL1       -0.0358
     39 C          14.6079   13.1190   45.1667 C.3     1  UNL1       -0.0358
     40 C          15.8810   14.2218   42.5213 C.3     1  UNL1       -0.0122
     41 H           2.7548   15.7792   44.6275 H       1  UNL1        0.0735
     42 H           8.3893   12.9144   44.8132 H       1  UNL1        0.0283
     43 H           7.4046   13.7451   45.9625 H       1  UNL1        0.0283
     44 H           4.2246   16.2755   46.6144 H       1  UNL1        0.0316
     45 H           4.0174   14.6279   47.1550 H       1  UNL1        0.0316
     46 H           2.5614   12.8783   45.5832 H       1  UNL1        0.0316
     47 H           1.6715   13.6868   44.3057 H       1  UNL1        0.0316
     48 H           4.2384   12.6916   42.4209 H       1  UNL1        0.0621
     49 H           8.6286   11.6283   43.2611 H       1  UNL1        0.0621
     50 H           4.5413   11.2328   44.6387 H       1  UNL1        0.0621
     51 H           9.1163   15.1774   44.8836 H       1  UNL1        0.0277
     52 H           7.4870   15.7827   44.5869 H       1  UNL1        0.0277
     53 H           2.3059   16.9089   47.7231 H       1  UNL1        0.0464
     54 H           0.0061   13.9072   45.9212 H       1  UNL1        0.0464
     55 H           7.7396   15.5496   40.3782 H       1  UNL1        0.0621
     56 H           8.7347   15.7785   43.0326 H       1  UNL1        0.0462
     57 H           3.9965   13.4937   40.0986 H       1  UNL1        0.0618
     58 H           8.8284    9.2206   43.2408 H       1  UNL1        0.0618
     59 H           4.7805    8.8141   44.5734 H       1  UNL1        0.0618
     60 H           1.2124   15.3390   49.2064 H       1  UNL1        0.0281
     61 H           2.7921   14.5719   49.0391 H       1  UNL1        0.0281
     62 H           1.8291   12.8196   47.7637 H       1  UNL1        0.0281
     63 H           0.2618   13.4955   48.2313 H       1  UNL1        0.0281
     64 H           5.7441   14.9150   39.0692 H       1  UNL1        0.0618
     65 H           6.9257    7.7761   43.8961 H       1  UNL1        0.0618
     66 H          -0.1254   17.4468   46.8126 H       1  UNL1        0.0391
     67 H          -0.4403   16.1267   47.9603 H       1  UNL1        0.0391
     68 H          -1.0572   16.0278   46.2982 H       1  UNL1        0.0391
     69 H          12.0361   14.4726   42.3738 H       1  UNL1        0.0735
     70 H          12.0429   12.0768   42.0930 H       1  UNL1        0.0316
     71 H          12.1981   11.7917   43.8086 H       1  UNL1        0.0316
     72 H          12.2590   14.3465   45.4142 H       1  UNL1        0.0316
     73 H          12.4562   15.6941   44.3184 H       1  UNL1        0.0316
     74 H          14.3643   12.0506   41.9781 H       1  UNL1        0.0464
     75 H          14.7183   15.2513   44.6537 H       1  UNL1        0.0464
     76 H          15.7274   11.7112   43.9465 H       1  UNL1        0.0281
     77 H          14.1877   11.0565   44.5064 H       1  UNL1        0.0281
     78 H          13.9019   12.8923   45.9692 H       1  UNL1        0.0281
     79 H          15.5912   13.2831   45.6137 H       1  UNL1        0.0281
     80 H          15.9851   14.0059   41.4547 H       1  UNL1        0.0391
     81 H          16.5802   13.5991   43.0832 H       1  UNL1        0.0391
     82 H          16.1323   15.2726   42.6896 H       1  UNL1        0.0391
@<TRIPOS>BOND
     1     1     2    2
     2     2     3    1
     3     2     4    1
     4     3     5    1
     5     4     6    1
     6     4     7    1
     7     4     8    1
     8     5     9    1
     9     5    10    1
    10     6    11   ar
    11     6    12   ar
    12     7    13   ar
    13     7    14   ar
    14     8    15    1
    15     9    16    1
    16    10    17    1
    17    11    18   ar
    18    11    19    1
    19    12    20   ar
    20    13    21   ar
    21    14    22   ar
    22    16    23    1
    23    16    24    1
    24    17    25    1
    25    18    26   ar
    26    19    27    1
    27    21    28   ar
    28    23    29    1
    29    27    30    2
    30    27    31    1
    31    31    32    1
    32    32    33    1
    33    32    34    1
    34    33    35    1
    35    34    36    1
    36    35    37    1
    37    35    38    1
    38    36    39    1
    39    37    40    1
    40    15    19    1
    41    17    23    1
    42    20    26   ar
    43    22    28   ar
    44    24    25    1
    45    36    37    1
    46    38    39    1
    47     5    41    1
    48     8    42    1
    49     8    43    1
    50     9    44    1
    51     9    45    1
    52    10    46    1
    53    10    47    1
    54    12    48    1
    55    13    49    1
    56    14    50    1
    57    15    51    1
    58    15    52    1
    59    16    53    1
    60    17    54    1
    61    18    55    1
    62    19    56    1
    63    20    57    1
    64    21    58    1
    65    22    59    1
    66    24    60    1
    67    24    61    1
    68    25    62    1
    69    25    63    1
    70    26    64    1
    71    28    65    1
    72    29    66    1
    73    29    67    1
    74    29    68    1
    75    32    69    1
    76    33    70    1
    77    33    71    1
    78    34    72    1
    79    34    73    1
    80    35    74    1
    81    36    75    1
    82    38    76    1
    83    38    77    1
    84    39    78    1
    85    39    79    1
    86    40    80    1
    87    40    81    1
    88    40    82    1
@<TRIPOS>SUBSTRUCTURE
     1 UNL1        1 TEMP              0 ****  ****    0 ROOT


##########                                Name:                 120
##########                DOCK_Rotatable_Bonds:                   7
##########                         Heavy_Atoms:                  40
##########                    Molecular_Weight:             542.718
##########                       Formal_Charge:         0.000700511
##########                     HBond_Acceptors:                   6
##########                        HBond_Donors:                   0
##########                    Descriptor_Score:           33.929714
##########          Footprint_Similarity_Score:            7.445296
##########                 desc_FPS_vdw_energy:          -40.399940
##########                  desc_FPS_es_energy:           -0.961689
##########              desc_FPS_vdw+es_energy:          -41.361629
##########                  desc_FPS_num_hbond:                   0
##########                    desc_FPS_vdw_fps:            6.092617
##########                     desc_FPS_es_fps:            1.352680
##########                     desc_FPS_hb_fps:            0.000000
##########              desc_FPS_vdw_fp_numres:                 219
##########               desc_FPS_es_fp_numres:                 219
##########               desc_FPS_hb_fp_numres:                 219
##########                 Pharmacophore_Score:           20.000000
##########              desc_FMS_num_match_tot:                   0
##########              desc_FMS_max_match_ref:                  10
##########              desc_FMS_max_match_mol:                  13
##########                 desc_FMS_match_rate:            4.000000
##########                desc_FMS_match_resid:            0.000000
##########    desc_FMS_num_hydrophobic_matched:                   0
##########          desc_FMS_num_donor_matched:                   0
##########       desc_FMS_num_acceptor_matched:                   0
##########       desc_FMS_num_aromatic_matched:                   0
##########       desc_FMS_num_positive_matched:                   0
##########       desc_FMS_num_negative_matched:                   0
##########           desc_FMS_num_ring_matched:                   0
########## Hungarian_Matching_Similarity_Score:            6.735035
##########       desc_HMS_num_unmtchd_hvy_atms:                  29
##########           desc_HMS_num_ref_hvy_atms:                  23
##########        desc_HMS_rmsd_mtchd_hvy_atms:            5.430687
##########               Property_Volume_Score:            0.250617
##########               desc_VOS_geometric_vo:            0.332378
##########                desc_VOS_hvy_atom_vo:            0.321352
##########            desc_VOS_pos_chrg_atm_vo:            0.154752
##########            desc_VOS_neg_chrg_atm_vo:            0.332691
##########         desc_VOS_hydrophobic_atm_vo:            0.340834
##########         desc_VOS_hydrophilic_atm_vo:            0.021693
##########           Internal_energy_repulsive:           36.690422

@<TRIPOS>MOLECULE
120
 82 88 1 0 0
SMALL
GASTEIGER


@<TRIPOS>ATOM
      1 O           4.6424   15.1990   44.0826 O.2     1  UNL1       -0.2495
      2 C           5.3213   14.2646   44.4682 C.2     1  UNL1        0.3224
      3 O           5.0406   13.6233   45.6490 O.3     1  UNL1       -0.4604
      4 C           6.5532   13.7990   43.7432 C.3     1  UNL1        0.1177
      5 C           3.6611   13.6597   46.1474 C.3     1  UNL1        0.1060
      6 C           6.4721   14.2642   42.3428 C.ar    1  UNL1       -0.0223
      7 C           6.6910   12.3344   43.5446 C.ar    1  UNL1       -0.0263
      8 C           7.7239   14.3129   44.5918 C.3     1  UNL1       -0.0280
      9 C           3.3591   14.9255   46.9921 C.3     1  UNL1        0.0000
     10 C           3.2499   12.4108   46.9914 C.3     1  UNL1        0.0000
     11 C           7.4995   15.0457   41.7871 C.ar    1  UNL1       -0.0291
     12 C           5.3830   13.9493   41.5091 C.ar    1  UNL1       -0.0569
     13 C           7.9243   11.6448   43.4807 C.ar    1  UNL1       -0.0572
     14 C           5.5429   11.5350   43.7152 C.ar    1  UNL1       -0.0572
     15 C           8.3939   15.5919   44.0611 C.3     1  UNL1       -0.0344
     16 C           1.8662   14.9253   47.4690 C.3     1  UNL1        0.0138
     17 C           1.8546   12.6290   47.6867 C.3     1  UNL1        0.0138
     18 C           7.4677   15.4705   40.4618 C.ar    1  UNL1       -0.0575
     19 C           8.6441   15.3450   42.5879 C.3     1  UNL1        0.0817
     20 C           5.3546   14.3574   40.1783 C.ar    1  UNL1       -0.0614
     21 C           7.9883   10.2525   43.5223 C.ar    1  UNL1       -0.0615
     22 C           5.6056   10.1436   43.7503 C.ar    1  UNL1       -0.0615
     23 N           1.1599   13.7164   46.9578 N.3     1  UNL1       -0.2992
     24 C           1.8175   14.7157   48.9938 C.3     1  UNL1       -0.0358
     25 C           1.9678   13.1867   49.1352 C.3     1  UNL1       -0.0358
     26 C           6.4000   15.1172   39.6462 C.ar    1  UNL1       -0.0615
     27 C           9.8837   14.5822   42.3162 C.2     1  UNL1        0.3148
     28 C           6.8305    9.4978   43.6556 C.ar    1  UNL1       -0.0617
     29 C          -0.3176   13.7351   47.0868 C.3     1  UNL1       -0.0122
     30 O           9.8825   13.4761   41.8095 O.2     1  UNL1       -0.2502
     31 O          11.0108   15.2070   42.7282 O.3     1  UNL1       -0.4608
     32 C          12.3381   14.6283   42.5999 C.3     1  UNL1        0.1059
     33 C          12.4651   13.2127   43.2263 C.3     1  UNL1        0.0000
     34 C          13.4721   15.5759   43.0958 C.3     1  UNL1        0.0000
     35 C          13.9342   12.6838   43.1087 C.3     1  UNL1        0.0138
     36 C          14.8317   14.8143   43.2054 C.3     1  UNL1        0.0138
     37 N          14.7582   13.6336   42.3110 N.3     1  UNL1       -0.2992
     38 C          14.6173   12.7321   44.4898 C.3     1  UNL1       -0.0358
     39 C          15.0529   14.2048   44.6170 C.3     1  UNL1       -0.0358
     40 C          16.0696   13.1179   41.8566 C.3     1  UNL1       -0.0122
     41 H           3.0143   13.6739   45.2622 H       1  UNL1        0.0735
     42 H           8.5081   13.5487   44.6047 H       1  UNL1        0.0283
     43 H           7.4570   14.4402   45.6445 H       1  UNL1        0.0283
     44 H           3.5552   15.8399   46.4327 H       1  UNL1        0.0316
     45 H           4.0431   14.9335   47.8433 H       1  UNL1        0.0316
     46 H           4.0174   12.1698   47.7315 H       1  UNL1        0.0316
     47 H           3.1758   11.5511   46.3219 H       1  UNL1        0.0316
     48 H           4.5577   13.3473   41.8924 H       1  UNL1        0.0621
     49 H           8.8730   12.1685   43.4258 H       1  UNL1        0.0621
     50 H           4.5679   11.9894   43.8673 H       1  UNL1        0.0621
     51 H           9.2872   15.7946   44.6639 H       1  UNL1        0.0277
     52 H           7.7035   16.4289   44.2178 H       1  UNL1        0.0277
     53 H           1.3693   15.8513   47.1629 H       1  UNL1        0.0464
     54 H           1.2836   11.6948   47.6749 H       1  UNL1        0.0464
     55 H           8.2861   16.0516   40.0526 H       1  UNL1        0.0621
     56 H           9.0711   16.3436   42.7705 H       1  UNL1        0.0462
     57 H           4.5240   14.0783   39.5346 H       1  UNL1        0.0618
     58 H           8.9538    9.7543   43.4790 H       1  UNL1        0.0618
     59 H           4.6965    9.5615   43.8854 H       1  UNL1        0.0618
     60 H           0.8497   15.0398   49.3837 H       1  UNL1        0.0281
     61 H           2.5928   15.2692   49.5281 H       1  UNL1        0.0281
     62 H           2.9161   12.9211   49.6067 H       1  UNL1        0.0281
     63 H           1.1570   12.7995   49.7571 H       1  UNL1        0.0281
     64 H           6.3857   15.4226   38.6066 H       1  UNL1        0.0618
     65 H           6.8847    8.4126   43.7131 H       1  UNL1        0.0618
     66 H          -0.7324   14.4451   46.3661 H       1  UNL1        0.0391
     67 H          -0.6346   14.0254   48.0905 H       1  UNL1        0.0391
     68 H          -0.7204   12.7430   46.8654 H       1  UNL1        0.0391
     69 H          12.4851   14.4994   41.5241 H       1  UNL1        0.0735
     70 H          11.7780   12.5300   42.7241 H       1  UNL1        0.0316
     71 H          12.1626   13.2342   44.2749 H       1  UNL1        0.0316
     72 H          13.2221   16.0508   44.0459 H       1  UNL1        0.0316
     73 H          13.5779   16.3824   42.3668 H       1  UNL1        0.0316
     74 H          13.9391   11.6749   42.6864 H       1  UNL1        0.0464
     75 H          15.6511   15.4873   42.9379 H       1  UNL1        0.0464
     76 H          15.4947   12.0804   44.4931 H       1  UNL1        0.0281
     77 H          13.9651   12.4139   45.3066 H       1  UNL1        0.0281
     78 H          14.4726   14.7222   45.3849 H       1  UNL1        0.0281
     79 H          16.1082   14.2554   44.8951 H       1  UNL1        0.0281
     80 H          15.9112   12.3168   41.1298 H       1  UNL1        0.0391
     81 H          16.6610   12.7338   42.6904 H       1  UNL1        0.0391
     82 H          16.6279   13.9229   41.3709 H       1  UNL1        0.0391
@<TRIPOS>BOND
     1     1     2    2
     2     2     3    1
     3     2     4    1
     4     3     5    1
     5     4     6    1
     6     4     7    1
     7     4     8    1
     8     5     9    1
     9     5    10    1
    10     6    11   ar
    11     6    12   ar
    12     7    13   ar
    13     7    14   ar
    14     8    15    1
    15     9    16    1
    16    10    17    1
    17    11    18   ar
    18    11    19    1
    19    12    20   ar
    20    13    21   ar
    21    14    22   ar
    22    16    23    1
    23    16    24    1
    24    17    25    1
    25    18    26   ar
    26    19    27    1
    27    21    28   ar
    28    23    29    1
    29    27    30    2
    30    27    31    1
    31    31    32    1
    32    32    33    1
    33    32    34    1
    34    33    35    1
    35    34    36    1
    36    35    37    1
    37    35    38    1
    38    36    39    1
    39    37    40    1
    40    15    19    1
    41    17    23    1
    42    20    26   ar
    43    22    28   ar
    44    24    25    1
    45    36    37    1
    46    38    39    1
    47     5    41    1
    48     8    42    1
    49     8    43    1
    50     9    44    1
    51     9    45    1
    52    10    46    1
    53    10    47    1
    54    12    48    1
    55    13    49    1
    56    14    50    1
    57    15    51    1
    58    15    52    1
    59    16    53    1
    60    17    54    1
    61    18    55    1
    62    19    56    1
    63    20    57    1
    64    21    58    1
    65    22    59    1
    66    24    60    1
    67    24    61    1
    68    25    62    1
    69    25    63    1
    70    26    64    1
    71    28    65    1
    72    29    66    1
    73    29    67    1
    74    29    68    1
    75    32    69    1
    76    33    70    1
    77    33    71    1
    78    34    72    1
    79    34    73    1
    80    35    74    1
    81    36    75    1
    82    38    76    1
    83    38    77    1
    84    39    78    1
    85    39    79    1
    86    40    80    1
    87    40    81    1
    88    40    82    1
@<TRIPOS>SUBSTRUCTURE
     1 UNL1        1 TEMP              0 ****  ****    0 ROOT


##########                                Name:                 120
##########                DOCK_Rotatable_Bonds:                   7
##########                         Heavy_Atoms:                  40
##########                    Molecular_Weight:             542.718
##########                       Formal_Charge:         0.000700511
##########                     HBond_Acceptors:                   6
##########                        HBond_Donors:                   0
##########                    Descriptor_Score:           35.370716
##########          Footprint_Similarity_Score:            8.528328
##########                 desc_FPS_vdw_energy:          -40.883816
##########                  desc_FPS_es_energy:            0.736047
##########              desc_FPS_vdw+es_energy:          -40.147770
##########                  desc_FPS_num_hbond:                   0
##########                    desc_FPS_vdw_fps:            6.487872
##########                     desc_FPS_es_fps:            2.040456
##########                     desc_FPS_hb_fps:            0.000000
##########              desc_FPS_vdw_fp_numres:                 219
##########               desc_FPS_es_fp_numres:                 219
##########               desc_FPS_hb_fp_numres:                 219
##########                 Pharmacophore_Score:           20.000000
##########              desc_FMS_num_match_tot:                   0
##########              desc_FMS_max_match_ref:                  10
##########              desc_FMS_max_match_mol:                  13
##########                 desc_FMS_match_rate:            4.000000
##########                desc_FMS_match_resid:            0.000000
##########    desc_FMS_num_hydrophobic_matched:                   0
##########          desc_FMS_num_donor_matched:                   0
##########       desc_FMS_num_acceptor_matched:                   0
##########       desc_FMS_num_aromatic_matched:                   0
##########       desc_FMS_num_positive_matched:                   0
##########       desc_FMS_num_negative_matched:                   0
##########           desc_FMS_num_ring_matched:                   0
########## Hungarian_Matching_Similarity_Score:            7.042107
##########       desc_HMS_num_unmtchd_hvy_atms:                  29
##########           desc_HMS_num_ref_hvy_atms:                  23
##########        desc_HMS_rmsd_mtchd_hvy_atms:            5.737759
##########               Property_Volume_Score:            0.199720
##########               desc_VOS_geometric_vo:            0.270900
##########                desc_VOS_hvy_atom_vo:            0.264748
##########            desc_VOS_pos_chrg_atm_vo:            0.142043
##########            desc_VOS_neg_chrg_atm_vo:            0.242321
##########         desc_VOS_hydrophobic_atm_vo:            0.234418
##########         desc_VOS_hydrophilic_atm_vo:            0.043889
##########           Internal_energy_repulsive:           35.916409

@<TRIPOS>MOLECULE
120
 82 88 1 0 0
SMALL
GASTEIGER


@<TRIPOS>ATOM
      1 O           4.8180   13.4349   40.3057 O.2     1  UNL1       -0.2495
      2 C           4.6688   13.9374   41.4048 C.2     1  UNL1        0.3224
      3 O           3.5056   14.5865   41.7362 O.3     1  UNL1       -0.4604
      4 C           5.7570   13.9664   42.4417 C.3     1  UNL1        0.1177
      5 C           2.7317   15.2161   40.6604 C.3     1  UNL1        0.1060
      6 C           5.9889   12.5842   42.9109 C.ar    1  UNL1       -0.0223
      7 C           5.4346   14.6464   43.7211 C.ar    1  UNL1       -0.0263
      8 C           6.9277   14.6869   41.7598 C.3     1  UNL1       -0.0280
      9 C           3.0854   16.7134   40.4606 C.3     1  UNL1        0.0000
     10 C           1.1828   15.1088   40.8359 C.3     1  UNL1        0.0000
     11 C           7.2695   12.0097   42.8413 C.ar    1  UNL1       -0.0291
     12 C           4.9576   11.7901   43.4457 C.ar    1  UNL1       -0.0569
     13 C           5.5360   14.0461   44.9979 C.ar    1  UNL1       -0.0572
     14 C           5.2958   16.0489   43.7058 C.ar    1  UNL1       -0.0572
     15 C           8.0309   13.7602   41.2208 C.3     1  UNL1       -0.0344
     16 C           2.2531   17.3226   39.2807 C.3     1  UNL1        0.0138
     17 C           0.4283   16.0049   39.7846 C.3     1  UNL1        0.0138
     18 C           7.5263   10.7228   43.3060 C.ar    1  UNL1       -0.0575
     19 C           8.3516   12.8020   42.3491 C.3     1  UNL1        0.0817
     20 C           5.2126   10.5090   43.9273 C.ar    1  UNL1       -0.0614
     21 C           5.4415   14.7960   46.1697 C.ar    1  UNL1       -0.0615
     22 C           5.1948   16.7978   44.8763 C.ar    1  UNL1       -0.0615
     23 N           1.3732   16.2820   38.6770 N.3     1  UNL1       -0.2992
     24 C           1.2341   18.3312   39.8423 C.3     1  UNL1       -0.0358
     25 C           0.0810   17.4243   40.3201 C.3     1  UNL1       -0.0358
     26 C           6.5006    9.9700   43.8638 C.ar    1  UNL1       -0.0615
     27 C           9.2998   13.3531   43.3440 C.2     1  UNL1        0.3148
     28 C           5.2692   16.1725   46.1132 C.ar    1  UNL1       -0.0617
     29 C           0.7536   16.6417   37.3782 C.3     1  UNL1       -0.0122
     30 O           9.1562   14.4450   43.8608 O.2     1  UNL1       -0.2502
     31 O          10.3633   12.5527   43.5865 O.3     1  UNL1       -0.4608
     32 C          11.7343   12.9326   43.2878 C.3     1  UNL1        0.1059
     33 C          12.7436   11.7561   43.3858 C.3     1  UNL1        0.0000
     34 C          12.2198   14.1706   44.1011 C.3     1  UNL1        0.0000
     35 C          14.2035   12.2538   43.1168 C.3     1  UNL1        0.0138
     36 C          13.7640   14.3623   43.9625 C.3     1  UNL1        0.0138
     37 N          14.1898   13.6870   42.7127 N.3     1  UNL1       -0.2992
     38 C          14.9934   12.2906   44.4402 C.3     1  UNL1       -0.0358
     39 C          14.5516   13.6220   45.0782 C.3     1  UNL1       -0.0358
     40 C          15.4506   14.1998   42.1298 C.3     1  UNL1       -0.0122
     41 H           2.9870   14.6761   39.7410 H       1  UNL1        0.0735
     42 H           7.4155   15.3348   42.4955 H       1  UNL1        0.0283
     43 H           6.5998   15.3734   40.9745 H       1  UNL1        0.0283
     44 H           4.1471   16.8534   40.2585 H       1  UNL1        0.0316
     45 H           2.8795   17.2360   41.3971 H       1  UNL1        0.0316
     46 H           0.8859   15.3737   41.8540 H       1  UNL1        0.0316
     47 H           0.8895   14.0680   40.6822 H       1  UNL1        0.0316
     48 H           3.9443   12.1878   43.5197 H       1  UNL1        0.0621
     49 H           5.7200   12.9839   45.1201 H       1  UNL1        0.0621
     50 H           5.3052   16.5972   42.7679 H       1  UNL1        0.0621
     51 H           8.8678   14.3778   40.8739 H       1  UNL1        0.0277
     52 H           7.6356   13.2330   40.3447 H       1  UNL1        0.0277
     53 H           2.9194   17.7768   38.5404 H       1  UNL1        0.0464
     54 H          -0.4739   15.4906   39.4375 H       1  UNL1        0.0464
     55 H           8.5293   10.3141   43.2624 H       1  UNL1        0.0621
     56 H           9.0556   12.5227   41.5495 H       1  UNL1        0.0462
     57 H           4.4145    9.9183   44.3701 H       1  UNL1        0.0618
     58 H           5.5319   14.3038   47.1350 H       1  UNL1        0.0618
     59 H           5.0905   17.8793   44.8226 H       1  UNL1        0.0618
     60 H           0.8898   18.9955   39.0461 H       1  UNL1        0.0281
     61 H           1.6424   18.9543   40.6410 H       1  UNL1        0.0281
     62 H          -0.0164   17.4426   41.4075 H       1  UNL1        0.0281
     63 H          -0.8587   17.7756   39.8871 H       1  UNL1        0.0281
     64 H           6.7029    8.9787   44.2519 H       1  UNL1        0.0618
     65 H           5.2209   16.7590   47.0284 H       1  UNL1        0.0618
     66 H           1.5210   16.6338   36.5994 H       1  UNL1        0.0391
     67 H           0.2915   17.6305   37.4080 H       1  UNL1        0.0391
     68 H          -0.0112   15.9052   37.1171 H       1  UNL1        0.0391
     69 H          11.7192   13.2341   42.2369 H       1  UNL1        0.0735
     70 H          12.4711   10.9826   42.6662 H       1  UNL1        0.0316
     71 H          12.6873   11.2901   44.3713 H       1  UNL1        0.0316
     72 H          11.9352   14.1066   45.1526 H       1  UNL1        0.0316
     73 H          11.7178   15.0536   43.6994 H       1  UNL1        0.0316
     74 H          14.6875   11.6173   42.3707 H       1  UNL1        0.0464
     75 H          14.0018   15.4297   43.9593 H       1  UNL1        0.0464
     76 H          16.0661   12.3129   44.2318 H       1  UNL1        0.0281
     77 H          14.7987   11.4299   45.0845 H       1  UNL1        0.0281
     78 H          13.9414   13.4489   45.9679 H       1  UNL1        0.0281
     79 H          15.4304   14.1994   45.3745 H       1  UNL1        0.0281
     80 H          15.6287   13.7127   41.1675 H       1  UNL1        0.0391
     81 H          16.3019   14.0150   42.7883 H       1  UNL1        0.0391
     82 H          15.3621   15.2769   41.9634 H       1  UNL1        0.0391
@<TRIPOS>BOND
     1     1     2    2
     2     2     3    1
     3     2     4    1
     4     3     5    1
     5     4     6    1
     6     4     7    1
     7     4     8    1
     8     5     9    1
     9     5    10    1
    10     6    11   ar
    11     6    12   ar
    12     7    13   ar
    13     7    14   ar
    14     8    15    1
    15     9    16    1
    16    10    17    1
    17    11    18   ar
    18    11    19    1
    19    12    20   ar
    20    13    21   ar
    21    14    22   ar
    22    16    23    1
    23    16    24    1
    24    17    25    1
    25    18    26   ar
    26    19    27    1
    27    21    28   ar
    28    23    29    1
    29    27    30    2
    30    27    31    1
    31    31    32    1
    32    32    33    1
    33    32    34    1
    34    33    35    1
    35    34    36    1
    36    35    37    1
    37    35    38    1
    38    36    39    1
    39    37    40    1
    40    15    19    1
    41    17    23    1
    42    20    26   ar
    43    22    28   ar
    44    24    25    1
    45    36    37    1
    46    38    39    1
    47     5    41    1
    48     8    42    1
    49     8    43    1
    50     9    44    1
    51     9    45    1
    52    10    46    1
    53    10    47    1
    54    12    48    1
    55    13    49    1
    56    14    50    1
    57    15    51    1
    58    15    52    1
    59    16    53    1
    60    17    54    1
    61    18    55    1
    62    19    56    1
    63    20    57    1
    64    21    58    1
    65    22    59    1
    66    24    60    1
    67    24    61    1
    68    25    62    1
    69    25    63    1
    70    26    64    1
    71    28    65    1
    72    29    66    1
    73    29    67    1
    74    29    68    1
    75    32    69    1
    76    33    70    1
    77    33    71    1
    78    34    72    1
    79    34    73    1
    80    35    74    1
    81    36    75    1
    82    38    76    1
    83    38    77    1
    84    39    78    1
    85    39    79    1
    86    40    80    1
    87    40    81    1
    88    40    82    1
@<TRIPOS>SUBSTRUCTURE
     1 UNL1        1 TEMP              0 ****  ****    0 ROOT


##########                                Name:                 121
##########                DOCK_Rotatable_Bonds:                  13
##########                         Heavy_Atoms:                  30
##########                    Molecular_Weight:             420.416
##########                       Formal_Charge:         0.000199631
##########                     HBond_Acceptors:                   9
##########                        HBond_Donors:                   6
##########                    Descriptor_Score:           31.915575
##########          Footprint_Similarity_Score:            6.858233
##########                 desc_FPS_vdw_energy:          -37.582733
##########                  desc_FPS_es_energy:           -4.124121
##########              desc_FPS_vdw+es_energy:          -41.706856
##########                  desc_FPS_num_hbond:                   2
##########                    desc_FPS_vdw_fps:            5.097807
##########                     desc_FPS_es_fps:            1.760426
##########                     desc_FPS_hb_fps:            1.414214
##########              desc_FPS_vdw_fp_numres:                 219
##########               desc_FPS_es_fp_numres:                 219
##########               desc_FPS_hb_fp_numres:                 219
##########                 Pharmacophore_Score:           20.000000
##########              desc_FMS_num_match_tot:                   0
##########              desc_FMS_max_match_ref:                  10
##########              desc_FMS_max_match_mol:                  20
##########                 desc_FMS_match_rate:            4.000000
##########                desc_FMS_match_resid:            0.000000
##########    desc_FMS_num_hydrophobic_matched:                   0
##########          desc_FMS_num_donor_matched:                   0
##########       desc_FMS_num_acceptor_matched:                   0
##########       desc_FMS_num_aromatic_matched:                   0
##########       desc_FMS_num_positive_matched:                   0
##########       desc_FMS_num_negative_matched:                   0
##########           desc_FMS_num_ring_matched:                   0
########## Hungarian_Matching_Similarity_Score:            5.286674
##########       desc_HMS_num_unmtchd_hvy_atms:                  21
##########           desc_HMS_num_ref_hvy_atms:                  23
##########        desc_HMS_rmsd_mtchd_hvy_atms:            5.721456
##########               Property_Volume_Score:            0.229330
##########               desc_VOS_geometric_vo:            0.405557
##########                desc_VOS_hvy_atom_vo:            0.403234
##########            desc_VOS_pos_chrg_atm_vo:            0.191918
##########            desc_VOS_neg_chrg_atm_vo:            0.225975
##########         desc_VOS_hydrophobic_atm_vo:            0.090403
##########         desc_VOS_hydrophilic_atm_vo:            0.058894
##########           Internal_energy_repulsive:            8.095170

@<TRIPOS>MOLECULE
121
 54 56 1 0 0
SMALL
GASTEIGER


@<TRIPOS>ATOM
      1 O          13.3245   12.0116   42.6506 O.3     1  UNL1       -0.3313
      2 C          14.5230   12.4182   43.3616 C.3     1  UNL1        0.2308
      3 C          12.2103   12.9441   42.6933 C.3     1  UNL1        0.1140
      4 O          15.0836   13.6444   42.8256 O.3     1  UNL1       -0.4607
      5 C          14.1770   12.6298   44.8566 C.3     1  UNL1        0.1454
      6 C          11.7623   13.1562   44.1626 C.3     1  UNL1        0.1120
      7 C          11.0764   12.3710   41.8137 C.3     1  UNL1        0.0731
      8 C          15.9393   13.6960   41.7410 C.ar    1  UNL1        0.1280
      9 O          15.3220   13.1516   45.5468 O.3     1  UNL1       -0.3829
     10 C          12.9522   13.5648   45.0592 C.3     1  UNL1        0.1152
     11 O          10.7921   14.2068   44.2279 O.3     1  UNL1       -0.3865
     12 O          11.6077   11.6294   40.7086 O.3     1  UNL1       -0.3924
     13 C          15.9998   12.6877   40.7715 C.ar    1  UNL1        0.0217
     14 C          16.7349   14.8327   41.6063 C.ar    1  UNL1       -0.0124
     15 O          13.2833   14.9370   44.8046 O.3     1  UNL1       -0.3864
     16 C          16.8556   12.8288   39.6763 C.ar    1  UNL1        0.1209
     17 C          17.5783   14.9701   40.5065 C.ar    1  UNL1       -0.0181
     18 O          16.9224   11.8780   38.7060 O.3     1  UNL1       -0.5066
     19 C          17.6393   13.9675   39.5448 C.ar    1  UNL1       -0.0128
     20 C          18.3372   16.2053   40.2837 C.2     1  UNL1       -0.0538
     21 C          19.4976   16.5210   40.8668 C.2     1  UNL1       -0.0539
     22 C          20.2452   15.7128   41.8366 C.ar    1  UNL1       -0.0213
     23 C          20.0992   15.9794   43.1945 C.ar    1  UNL1       -0.0094
     24 C          21.1019   14.7022   41.4134 C.ar    1  UNL1       -0.0509
     25 C          20.8072   15.2464   44.1443 C.ar    1  UNL1        0.1590
     26 C          21.8128   13.9633   42.3535 C.ar    1  UNL1       -0.0158
     27 O          20.6106   15.5754   45.4570 O.3     1  UNL1       -0.5033
     28 C          21.6794   14.2225   43.7193 C.ar    1  UNL1        0.1613
     29 O          22.4468   13.4226   44.5558 O.3     1  UNL1       -0.4915
     30 C          23.2536   12.2988   44.1384 C.3     1  UNL1        0.0790
     31 H          15.2742   11.6216   43.2472 H       1  UNL1        0.1084
     32 H          12.5377   13.8993   42.2717 H       1  UNL1        0.0647
     33 H          13.9300   11.6553   45.2869 H       1  UNL1        0.0683
     34 H          11.3225   12.2309   44.5452 H       1  UNL1        0.0647
     35 H          10.4673   13.1948   41.4318 H       1  UNL1        0.0584
     36 H          10.4370   11.7191   42.4154 H       1  UNL1        0.0584
     37 H          15.1065   13.2142   46.4999 H       1  UNL1        0.2102
     38 H          12.6364   13.4856   46.1031 H       1  UNL1        0.0648
     39 H          11.2878   15.0116   44.4964 H       1  UNL1        0.2100
     40 H          12.2338   12.1988   40.2252 H       1  UNL1        0.2095
     41 H          15.3778   11.8011   40.8583 H       1  UNL1        0.0691
     42 H          16.6724   15.6271   42.3470 H       1  UNL1        0.0660
     43 H          13.5413   14.9927   43.8743 H       1  UNL1        0.2100
     44 H          16.4310   11.0953   38.9904 H       1  UNL1        0.2921
     45 H          18.2848   14.0835   38.6762 H       1  UNL1        0.0660
     46 H          17.8562   16.9449   39.6436 H       1  UNL1        0.0624
     47 H          19.9913   17.4446   40.5643 H       1  UNL1        0.0624
     48 H          19.4277   16.7737   43.5132 H       1  UNL1        0.0661
     49 H          21.2205   14.4914   40.3531 H       1  UNL1        0.0625
     50 H          22.4837   13.1760   42.0187 H       1  UNL1        0.0655
     51 H          20.1573   16.4373   45.5132 H       1  UNL1        0.2923
     52 H          23.7323   11.8631   45.0185 H       1  UNL1        0.0660
     53 H          24.0200   12.6419   43.4383 H       1  UNL1        0.0660
     54 H          22.6155   11.5496   43.6620 H       1  UNL1        0.0660
@<TRIPOS>BOND
     1     1     2    1
     2     1     3    1
     3     2     4    1
     4     2     5    1
     5     3     6    1
     6     3     7    1
     7     4     8    1
     8     5     9    1
     9     5    10    1
    10     6    11    1
    11     7    12    1
    12     8    13   ar
    13     8    14   ar
    14    10    15    1
    15    13    16   ar
    16    14    17   ar
    17    16    18    1
    18    16    19   ar
    19    17    20    1
    20    20    21    2
    21    21    22    1
    22    22    23   ar
    23    22    24   ar
    24    23    25   ar
    25    24    26   ar
    26    25    27    1
    27    25    28   ar
    28    28    29    1
    29    29    30    1
    30     6    10    1
    31    17    19   ar
    32    26    28   ar
    33     2    31    1
    34     3    32    1
    35     5    33    1
    36     6    34    1
    37     7    35    1
    38     7    36    1
    39     9    37    1
    40    10    38    1
    41    11    39    1
    42    12    40    1
    43    13    41    1
    44    14    42    1
    45    15    43    1
    46    18    44    1
    47    19    45    1
    48    20    46    1
    49    21    47    1
    50    23    48    1
    51    24    49    1
    52    26    50    1
    53    27    51    1
    54    30    52    1
    55    30    53    1
    56    30    54    1
@<TRIPOS>SUBSTRUCTURE
     1 UNL1        1 TEMP              0 ****  ****    0 ROOT


##########                                Name:                 121
##########                DOCK_Rotatable_Bonds:                  13
##########                         Heavy_Atoms:                  30
##########                    Molecular_Weight:             420.416
##########                       Formal_Charge:         0.000199631
##########                     HBond_Acceptors:                   9
##########                        HBond_Donors:                   6
##########                    Descriptor_Score:           33.825226
##########          Footprint_Similarity_Score:            8.760818
##########                 desc_FPS_vdw_energy:          -36.960773
##########                  desc_FPS_es_energy:           -2.783759
##########              desc_FPS_vdw+es_energy:          -39.744534
##########                  desc_FPS_num_hbond:                   1
##########                    desc_FPS_vdw_fps:            5.728132
##########                     desc_FPS_es_fps:            3.032685
##########                     desc_FPS_hb_fps:            1.000000
##########              desc_FPS_vdw_fp_numres:                 219
##########               desc_FPS_es_fp_numres:                 219
##########               desc_FPS_hb_fp_numres:                 219
##########                 Pharmacophore_Score:           20.000000
##########              desc_FMS_num_match_tot:                   0
##########              desc_FMS_max_match_ref:                  10
##########              desc_FMS_max_match_mol:                  20
##########                 desc_FMS_match_rate:            4.000000
##########                desc_FMS_match_resid:            0.000000
##########    desc_FMS_num_hydrophobic_matched:                   0
##########          desc_FMS_num_donor_matched:                   0
##########       desc_FMS_num_acceptor_matched:                   0
##########       desc_FMS_num_aromatic_matched:                   0
##########       desc_FMS_num_positive_matched:                   0
##########       desc_FMS_num_negative_matched:                   0
##########           desc_FMS_num_ring_matched:                   0
########## Hungarian_Matching_Similarity_Score:            5.285112
##########       desc_HMS_num_unmtchd_hvy_atms:                  21
##########           desc_HMS_num_ref_hvy_atms:                  23
##########        desc_HMS_rmsd_mtchd_hvy_atms:            5.719894
##########               Property_Volume_Score:            0.220704
##########               desc_VOS_geometric_vo:            0.392687
##########                desc_VOS_hvy_atom_vo:            0.386001
##########            desc_VOS_pos_chrg_atm_vo:            0.190911
##########            desc_VOS_neg_chrg_atm_vo:            0.214233
##########         desc_VOS_hydrophobic_atm_vo:            0.093532
##########         desc_VOS_hydrophilic_atm_vo:            0.046862
##########           Internal_energy_repulsive:           12.687271

@<TRIPOS>MOLECULE
121
 54 56 1 0 0
SMALL
GASTEIGER


@<TRIPOS>ATOM
      1 O          12.9994   12.1457   42.2144 O.3     1  UNL1       -0.3313
      2 C          14.2620   12.4140   42.8786 C.3     1  UNL1        0.2308
      3 C          11.8947   13.0223   42.5666 C.3     1  UNL1        0.1140
      4 O          14.7670   13.7392   42.5720 O.3     1  UNL1       -0.4607
      5 C          14.0649   12.2880   44.4099 C.3     1  UNL1        0.1454
      6 C          11.5935   12.9002   44.0828 C.3     1  UNL1        0.1120
      7 C          10.6798   12.6297   41.6962 C.3     1  UNL1        0.0731
      8 C          15.8356   13.9858   41.7304 C.ar    1  UNL1        0.1280
      9 O          15.2722   12.6721   45.0842 O.3     1  UNL1       -0.3829
     10 C          12.8659   13.1299   44.9285 C.3     1  UNL1        0.1152
     11 O          10.6343   13.8903   44.4688 O.3     1  UNL1       -0.3865
     12 O           9.5582   12.2684   42.5117 O.3     1  UNL1       -0.3924
     13 C          16.1922   13.1281   40.6828 C.ar    1  UNL1        0.0217
     14 C          16.5464   15.1687   41.9273 C.ar    1  UNL1       -0.0124
     15 O          13.1701   14.5315   44.9492 O.3     1  UNL1       -0.3864
     16 C          17.2561   13.4645   39.8422 C.ar    1  UNL1        0.1209
     17 C          17.5996   15.5016   41.0790 C.ar    1  UNL1       -0.0181
     18 O          17.6143   12.6642   38.8025 O.3     1  UNL1       -0.5066
     19 C          17.9544   14.6485   40.0397 C.ar    1  UNL1       -0.0128
     20 C          18.2863   16.7924   41.1946 C.2     1  UNL1       -0.0538
     21 C          19.4501   17.0012   41.8177 C.2     1  UNL1       -0.0539
     22 C          20.2730   16.0004   42.5062 C.ar    1  UNL1       -0.0213
     23 C          21.2976   15.3703   41.8068 C.ar    1  UNL1       -0.0094
     24 C          20.0300   15.6686   43.8347 C.ar    1  UNL1       -0.0509
     25 C          22.0876   14.4008   42.4207 C.ar    1  UNL1        0.1590
     26 C          20.8136   14.7028   44.4578 C.ar    1  UNL1       -0.0158
     27 O          23.0695   13.8264   41.6617 O.3     1  UNL1       -0.5033
     28 C          21.8426   14.0591   43.7671 C.ar    1  UNL1        0.1613
     29 O          22.5474   13.1101   44.4958 O.3     1  UNL1       -0.4915
     30 C          23.5725   12.2370   43.9714 C.3     1  UNL1        0.0790
     31 H          14.9985   11.6778   42.5214 H       1  UNL1        0.1084
     32 H          12.1789   14.0532   42.3343 H       1  UNL1        0.0647
     33 H          13.8616   11.2382   44.6386 H       1  UNL1        0.0683
     34 H          11.1937   11.9046   44.2945 H       1  UNL1        0.0647
     35 H          10.9509   11.7796   41.0642 H       1  UNL1        0.0584
     36 H          10.4042   13.4670   41.0490 H       1  UNL1        0.0584
     37 H          15.4944   11.9790   45.7391 H       1  UNL1        0.2102
     38 H          12.6544   12.8189   45.9553 H       1  UNL1        0.0648
     39 H          10.2041   13.5428   45.2810 H       1  UNL1        0.2100
     40 H           9.8490   11.6035   43.1622 H       1  UNL1        0.2095
     41 H          15.6405   12.2079   40.5113 H       1  UNL1        0.0691
     42 H          16.2563   15.8469   42.7269 H       1  UNL1        0.0660
     43 H          12.7570   14.8939   45.7449 H       1  UNL1        0.2100
     44 H          16.8233   12.2537   38.4273 H       1  UNL1        0.2921
     45 H          18.7656   14.9177   39.3659 H       1  UNL1        0.0660
     46 H          17.7451   17.6513   40.7977 H       1  UNL1        0.0624
     47 H          19.8849   17.9998   41.7753 H       1  UNL1        0.0624
     48 H          21.4768   15.6368   40.7674 H       1  UNL1        0.0661
     49 H          19.2291   16.1573   44.3849 H       1  UNL1        0.0625
     50 H          20.6187   14.4440   45.4958 H       1  UNL1        0.0655
     51 H          23.5749   13.1941   42.2061 H       1  UNL1        0.2923
     52 H          23.9359   11.5964   44.7783 H       1  UNL1        0.0660
     53 H          24.3985   12.8389   43.5831 H       1  UNL1        0.0660
     54 H          23.1507   11.6171   43.1756 H       1  UNL1        0.0660
@<TRIPOS>BOND
     1     1     2    1
     2     1     3    1
     3     2     4    1
     4     2     5    1
     5     3     6    1
     6     3     7    1
     7     4     8    1
     8     5     9    1
     9     5    10    1
    10     6    11    1
    11     7    12    1
    12     8    13   ar
    13     8    14   ar
    14    10    15    1
    15    13    16   ar
    16    14    17   ar
    17    16    18    1
    18    16    19   ar
    19    17    20    1
    20    20    21    2
    21    21    22    1
    22    22    23   ar
    23    22    24   ar
    24    23    25   ar
    25    24    26   ar
    26    25    27    1
    27    25    28   ar
    28    28    29    1
    29    29    30    1
    30     6    10    1
    31    17    19   ar
    32    26    28   ar
    33     2    31    1
    34     3    32    1
    35     5    33    1
    36     6    34    1
    37     7    35    1
    38     7    36    1
    39     9    37    1
    40    10    38    1
    41    11    39    1
    42    12    40    1
    43    13    41    1
    44    14    42    1
    45    15    43    1
    46    18    44    1
    47    19    45    1
    48    20    46    1
    49    21    47    1
    50    23    48    1
    51    24    49    1
    52    26    50    1
    53    27    51    1
    54    30    52    1
    55    30    53    1
    56    30    54    1
@<TRIPOS>SUBSTRUCTURE
     1 UNL1        1 TEMP              0 ****  ****    0 ROOT


##########                                Name:                 121
##########                DOCK_Rotatable_Bonds:                  13
##########                         Heavy_Atoms:                  30
##########                    Molecular_Weight:             420.416
##########                       Formal_Charge:         0.000199631
##########                     HBond_Acceptors:                   9
##########                        HBond_Donors:                   6
##########                    Descriptor_Score:           31.380028
##########          Footprint_Similarity_Score:            8.913405
##########                 desc_FPS_vdw_energy:          -34.205467
##########                  desc_FPS_es_energy:           -3.339898
##########              desc_FPS_vdw+es_energy:          -37.545364
##########                  desc_FPS_num_hbond:                   6
##########                    desc_FPS_vdw_fps:            6.043801
##########                     desc_FPS_es_fps:            2.869605
##########                     desc_FPS_hb_fps:            3.741657
##########              desc_FPS_vdw_fp_numres:                 219
##########               desc_FPS_es_fp_numres:                 219
##########               desc_FPS_hb_fp_numres:                 219
##########                 Pharmacophore_Score:           20.000000
##########              desc_FMS_num_match_tot:                   0
##########              desc_FMS_max_match_ref:                  10
##########              desc_FMS_max_match_mol:                  20
##########                 desc_FMS_match_rate:            4.000000
##########                desc_FMS_match_resid:            0.000000
##########    desc_FMS_num_hydrophobic_matched:                   0
##########          desc_FMS_num_donor_matched:                   0
##########       desc_FMS_num_acceptor_matched:                   0
##########       desc_FMS_num_aromatic_matched:                   0
##########       desc_FMS_num_positive_matched:                   0
##########       desc_FMS_num_negative_matched:                   0
##########           desc_FMS_num_ring_matched:                   0
########## Hungarian_Matching_Similarity_Score:            2.659932
##########       desc_HMS_num_unmtchd_hvy_atms:                  21
##########           desc_HMS_num_ref_hvy_atms:                  23
##########        desc_HMS_rmsd_mtchd_hvy_atms:            3.094715
##########               Property_Volume_Score:            0.193310
##########               desc_VOS_geometric_vo:            0.309014
##########                desc_VOS_hvy_atom_vo:            0.287734
##########            desc_VOS_pos_chrg_atm_vo:            0.084498
##########            desc_VOS_neg_chrg_atm_vo:            0.256947
##########         desc_VOS_hydrophobic_atm_vo:            0.221664
##########         desc_VOS_hydrophilic_atm_vo:            0.000000
##########           Internal_energy_repulsive:            4.326894

@<TRIPOS>MOLECULE
121
 54 56 1 0 0
SMALL
GASTEIGER


@<TRIPOS>ATOM
      1 O           4.3553   15.0140   42.5924 O.3     1  UNL1       -0.3313
      2 C           5.3142   15.0911   41.5053 C.3     1  UNL1        0.2308
      3 C           3.1099   14.3254   42.2966 C.3     1  UNL1        0.1140
      4 O           5.7466   13.7772   41.0673 O.3     1  UNL1       -0.4607
      5 C           4.6667   15.8360   40.3114 C.3     1  UNL1        0.1454
      6 C           2.3683   15.0568   41.1479 C.3     1  UNL1        0.1120
      7 C           2.2731   14.2771   43.5948 C.3     1  UNL1        0.0731
      8 C           6.4983   12.9114   41.8395 C.ar    1  UNL1        0.1280
      9 O           5.5580   15.8102   39.1868 O.3     1  UNL1       -0.3829
     10 C           3.2842   15.2449   39.9180 C.3     1  UNL1        0.1152
     11 O           1.2379   14.2843   40.7300 O.3     1  UNL1       -0.3865
     12 O           3.0814   13.8916   44.7135 O.3     1  UNL1       -0.3924
     13 C           5.9658   11.7555   42.4233 C.ar    1  UNL1        0.0217
     14 C           7.8533   13.2013   41.9924 C.ar    1  UNL1       -0.0124
     15 O           3.4174   13.9907   39.2349 O.3     1  UNL1       -0.3864
     16 C           6.7960   10.9011   43.1530 C.ar    1  UNL1        0.1209
     17 C           8.6762   12.3394   42.7132 C.ar    1  UNL1       -0.0181
     18 O           6.3151    9.7595   43.7144 O.3     1  UNL1       -0.5066
     19 C           8.1464   11.1924   43.2942 C.ar    1  UNL1       -0.0128
     20 C          10.1238   12.5622   42.7903 C.2     1  UNL1       -0.0538
     21 C          10.7994   12.9125   43.8891 C.2     1  UNL1       -0.0539
     22 C          12.2443   13.1426   43.9993 C.ar    1  UNL1       -0.0213
     23 C          13.0817   12.0655   44.2726 C.ar    1  UNL1       -0.0094
     24 C          12.7770   14.4185   43.8496 C.ar    1  UNL1       -0.0509
     25 C          14.4565   12.2478   44.4039 C.ar    1  UNL1        0.1590
     26 C          14.1486   14.6116   43.9774 C.ar    1  UNL1       -0.0158
     27 O          15.2077   11.1384   44.6779 O.3     1  UNL1       -0.5033
     28 C          15.0007   13.5407   44.2557 C.ar    1  UNL1        0.1613
     29 O          16.3469   13.8630   44.3668 O.3     1  UNL1       -0.4915
     30 C          16.9784   14.4527   45.5250 C.3     1  UNL1        0.0790
     31 H           6.1985   15.6372   41.8685 H       1  UNL1        0.1084
     32 H           3.3416   13.3021   41.9860 H       1  UNL1        0.0647
     33 H           4.5144   16.8779   40.6064 H       1  UNL1        0.0683
     34 H           2.0299   16.0356   41.4995 H       1  UNL1        0.0647
     35 H           1.4628   13.5533   43.4727 H       1  UNL1        0.0584
     36 H           1.8325   15.2596   43.7858 H       1  UNL1        0.0584
     37 H           5.6496   14.8829   38.8862 H       1  UNL1        0.2102
     38 H           2.7989   15.9474   39.2349 H       1  UNL1        0.0648
     39 H           0.6574   14.2119   41.5195 H       1  UNL1        0.2100
     40 H           2.4990   13.7446   45.4810 H       1  UNL1        0.2095
     41 H           4.9138   11.5117   42.3036 H       1  UNL1        0.0691
     42 H           8.2730   14.0872   41.5206 H       1  UNL1        0.0660
     43 H           4.0110   14.1433   38.4869 H       1  UNL1        0.2100
     44 H           5.3489    9.7933   43.7308 H       1  UNL1        0.2921
     45 H           8.7934   10.5097   43.8419 H       1  UNL1        0.0660
     46 H          10.6603   12.5061   41.8432 H       1  UNL1        0.0624
     47 H          10.2340   13.1110   44.7996 H       1  UNL1        0.0624
     48 H          12.6530   11.0725   44.3897 H       1  UNL1        0.0661
     49 H          12.1261   15.2637   43.6376 H       1  UNL1        0.0625
     50 H          14.5610   15.6110   43.8625 H       1  UNL1        0.0655
     51 H          15.2863   11.0279   45.6439 H       1  UNL1        0.2923
     52 H          18.0401   14.5974   45.3116 H       1  UNL1        0.0660
     53 H          16.8663   13.7818   46.3810 H       1  UNL1        0.0660
     54 H          16.5147   15.4193   45.7399 H       1  UNL1        0.0660
@<TRIPOS>BOND
     1     1     2    1
     2     1     3    1
     3     2     4    1
     4     2     5    1
     5     3     6    1
     6     3     7    1
     7     4     8    1
     8     5     9    1
     9     5    10    1
    10     6    11    1
    11     7    12    1
    12     8    13   ar
    13     8    14   ar
    14    10    15    1
    15    13    16   ar
    16    14    17   ar
    17    16    18    1
    18    16    19   ar
    19    17    20    1
    20    20    21    2
    21    21    22    1
    22    22    23   ar
    23    22    24   ar
    24    23    25   ar
    25    24    26   ar
    26    25    27    1
    27    25    28   ar
    28    28    29    1
    29    29    30    1
    30     6    10    1
    31    17    19   ar
    32    26    28   ar
    33     2    31    1
    34     3    32    1
    35     5    33    1
    36     6    34    1
    37     7    35    1
    38     7    36    1
    39     9    37    1
    40    10    38    1
    41    11    39    1
    42    12    40    1
    43    13    41    1
    44    14    42    1
    45    15    43    1
    46    18    44    1
    47    19    45    1
    48    20    46    1
    49    21    47    1
    50    23    48    1
    51    24    49    1
    52    26    50    1
    53    27    51    1
    54    30    52    1
    55    30    53    1
    56    30    54    1
@<TRIPOS>SUBSTRUCTURE
     1 UNL1        1 TEMP              0 ****  ****    0 ROOT


##########                                Name:                 122
##########                DOCK_Rotatable_Bonds:                  21
##########                         Heavy_Atoms:                  62
##########                    Molecular_Weight:             862.751
##########                       Formal_Charge:         0.000199914
##########                     HBond_Acceptors:                  20
##########                        HBond_Donors:                  12
##########                    Descriptor_Score:           37.535328
##########          Footprint_Similarity_Score:           10.007108
##########                 desc_FPS_vdw_energy:          -51.073608
##########                  desc_FPS_es_energy:           -5.254940
##########              desc_FPS_vdw+es_energy:          -56.328548
##########                  desc_FPS_num_hbond:                   7
##########                    desc_FPS_vdw_fps:            6.655870
##########                     desc_FPS_es_fps:            3.351237
##########                     desc_FPS_hb_fps:            3.605551
##########              desc_FPS_vdw_fp_numres:                 219
##########               desc_FPS_es_fp_numres:                 219
##########               desc_FPS_hb_fp_numres:                 219
##########                 Pharmacophore_Score:           20.000000
##########              desc_FMS_num_match_tot:                   0
##########              desc_FMS_max_match_ref:                  10
##########              desc_FMS_max_match_mol:                  40
##########                 desc_FMS_match_rate:            4.000000
##########                desc_FMS_match_resid:            0.000000
##########    desc_FMS_num_hydrophobic_matched:                   0
##########          desc_FMS_num_donor_matched:                   0
##########       desc_FMS_num_acceptor_matched:                   0
##########       desc_FMS_num_aromatic_matched:                   0
##########       desc_FMS_num_positive_matched:                   0
##########       desc_FMS_num_negative_matched:                   0
##########           desc_FMS_num_ring_matched:                   0
########## Hungarian_Matching_Similarity_Score:            7.790771
##########       desc_HMS_num_unmtchd_hvy_atms:                  41
##########           desc_HMS_num_ref_hvy_atms:                  23
##########        desc_HMS_rmsd_mtchd_hvy_atms:            3.877727
##########               Property_Volume_Score:            0.262550
##########               desc_VOS_geometric_vo:            0.324071
##########                desc_VOS_hvy_atom_vo:            0.284563
##########            desc_VOS_pos_chrg_atm_vo:            0.104732
##########            desc_VOS_neg_chrg_atm_vo:            0.379174
##########         desc_VOS_hydrophobic_atm_vo:            0.482761
##########         desc_VOS_hydrophilic_atm_vo:            0.000000
##########           Internal_energy_repulsive:           46.660851

@<TRIPOS>MOLECULE
122
 100 107 1 0 0
SMALL
GASTEIGER


@<TRIPOS>ATOM
      1 O          13.8539   16.7361   41.7689 O.2     1  UNL1       -0.2864
      2 C          12.9170   15.9718   41.9028 C.2     1  UNL1        0.2007
      3 C          12.9914   14.7721   42.8175 C.ar    1  UNL1        0.0679
      4 C          11.6749   16.1389   41.0637 C.ar    1  UNL1        0.0675
      5 C          14.1928   14.4121   43.4667 C.ar    1  UNL1        0.1351
      6 C          11.8578   13.9539   42.9599 C.ar    1  UNL1       -0.0247
      7 C          11.5945   17.1219   40.0564 C.ar    1  UNL1        0.1287
      8 C          10.5678   15.3071   41.2974 C.ar    1  UNL1       -0.0240
      9 O          15.3306   15.1752   43.2843 O.3     1  UNL1       -0.4601
     10 C          14.2493   13.2704   44.2649 C.ar    1  UNL1       -0.0191
     11 C          12.0081   12.7211   43.6203 C.ar    1  UNL1       -0.0571
     12 C          10.5620   14.4117   42.4487 C.3     1  UNL1        0.0217
     13 O          12.6318   17.9754   39.7879 O.3     1  UNL1       -0.5060
     14 C          10.4276   17.2803   39.3068 C.ar    1  UNL1       -0.0055
     15 C           9.4081   15.4718   40.5216 C.ar    1  UNL1       -0.0431
     16 C          16.6789   14.7094   43.0402 C.3     1  UNL1        0.2308
     17 C          13.1743   12.4004   44.2988 C.ar    1  UNL1       -0.0580
     18 C           9.6145   14.7768   43.5219 C.3     1  UNL1        0.0217
     19 C           9.3125   16.4743   39.5410 C.ar    1  UNL1        0.0626
     20 O          17.1589   15.2082   41.7765 O.3     1  UNL1       -0.3313
     21 C          17.7114   15.0809   44.1393 C.3     1  UNL1        0.1454
     22 C           9.4559   16.2221   43.6904 C.ar    1  UNL1       -0.0240
     23 C           8.4195   13.9118   43.5954 C.ar    1  UNL1       -0.0247
     24 C           7.9893   16.7167   38.8469 C.2     1  UNL1        0.3369
     25 C          18.3503   14.5249   41.3202 C.3     1  UNL1        0.1140
     26 O          17.2398   14.6837   45.4349 O.3     1  UNL1       -0.3829
     27 C          19.0599   14.4056   43.7748 C.3     1  UNL1        0.1152
     28 C           8.1951   16.8051   43.5057 C.ar    1  UNL1        0.0675
     29 C          10.5599   17.0646   43.9212 C.ar    1  UNL1       -0.0431
     30 C           7.1247   14.4571   43.4515 C.ar    1  UNL1        0.0679
     31 C           8.5010   12.5330   43.8455 C.ar    1  UNL1       -0.0571
     32 O           7.0988   15.8924   38.8824 O.2     1  UNL1       -0.2451
     33 O           7.7679   17.8769   38.2618 O.3     1  UNL1       -0.4771
     34 C          19.5008   14.7900   42.3322 C.3     1  UNL1        0.1120
     35 C          18.6616   15.0023   39.8854 C.3     1  UNL1        0.0731
     36 O          20.0835   14.7922   44.6988 O.3     1  UNL1       -0.3864
     37 C           6.9637   15.9461   43.4271 C.2     1  UNL1        0.2007
     38 C           8.0856   18.1977   43.3907 C.ar    1  UNL1        0.1287
     39 C          10.4343   18.4670   43.9021 C.ar    1  UNL1        0.0626
     40 C           5.9921   13.6183   43.3868 C.ar    1  UNL1        0.1351
     41 C           7.3877   11.7062   43.7595 C.ar    1  UNL1       -0.0580
     42 O          19.8946   16.1698   42.2939 O.3     1  UNL1       -0.3865
     43 O          18.0165   16.2577   39.6391 O.3     1  UNL1       -0.3924
     44 O           5.8543   16.4446   43.4677 O.2     1  UNL1       -0.2864
     45 O           6.9235   18.7307   42.9075 O.3     1  UNL1       -0.5060
     46 C           9.1859   19.0251   43.6173 C.ar    1  UNL1       -0.0055
     47 C          11.6605   19.3399   44.0463 C.2     1  UNL1        0.3369
     48 O           4.7205   14.1718   43.2449 O.3     1  UNL1       -0.4601
     49 C           6.1355   12.2441   43.4962 C.ar    1  UNL1       -0.0191
     50 O          11.6328   20.3884   44.6567 O.2     1  UNL1       -0.2451
     51 O          12.7927   18.9157   43.5262 O.3     1  UNL1       -0.4771
     52 C           3.5198   13.5291   42.7592 C.3     1  UNL1        0.2308
     53 O           3.2651   13.8819   41.3750 O.3     1  UNL1       -0.3313
     54 C           2.3152   13.9862   43.6292 C.3     1  UNL1        0.1454
     55 C           3.0908   15.3023   41.1210 C.3     1  UNL1        0.1140
     56 O           2.5835   13.7290   45.0187 O.3     1  UNL1       -0.3829
     57 C           1.9812   15.4906   43.4214 C.3     1  UNL1        0.1152
     58 C           1.8742   15.8481   41.9221 C.3     1  UNL1        0.1120
     59 C           2.9704   15.5175   39.5912 C.3     1  UNL1        0.0731
     60 O           0.7041   15.7886   44.0025 O.3     1  UNL1       -0.3864
     61 O           0.6263   15.3445   41.4296 O.3     1  UNL1       -0.3865
     62 O           1.9383   14.6985   39.0283 O.3     1  UNL1       -0.3924
     63 H          15.1490   13.0194   44.8187 H       1  UNL1        0.0654
     64 H          11.2127   11.9899   43.6368 H       1  UNL1        0.0621
     65 H          10.6022   13.4791   41.8629 H       1  UNL1        0.0407
     66 H          12.2896   18.7758   39.3076 H       1  UNL1        0.2922
     67 H          10.3821   18.0776   38.5690 H       1  UNL1        0.0662
     68 H           8.5376   14.8560   40.7380 H       1  UNL1        0.0629
     69 H          16.5968   13.6144   42.9549 H       1  UNL1        0.1084
     70 H          13.2454   11.4684   44.8539 H       1  UNL1        0.0619
     71 H           9.7788   14.4662   44.5656 H       1  UNL1        0.0407
     72 H          17.8710   16.1598   44.1525 H       1  UNL1        0.0683
     73 H          18.1433   13.4505   41.2894 H       1  UNL1        0.0647
     74 H          16.2721   14.5888   45.4263 H       1  UNL1        0.2102
     75 H          18.9329   13.3205   43.8266 H       1  UNL1        0.0648
     76 H          11.5460   16.6260   44.0565 H       1  UNL1        0.0629
     77 H           9.4323   12.0581   44.1140 H       1  UNL1        0.0621
     78 H           7.0088   17.8741   37.6517 H       1  UNL1        0.2954
     79 H          20.3637   14.1767   42.0561 H       1  UNL1        0.0647
     80 H          18.3056   14.2618   39.1647 H       1  UNL1        0.0584
     81 H          19.7402   15.1286   39.7569 H       1  UNL1        0.0584
     82 H          20.1622   15.7679   44.6665 H       1  UNL1        0.2100
     83 H           7.4957   10.6344   43.9016 H       1  UNL1        0.0619
     84 H          19.7899   16.4988   41.3817 H       1  UNL1        0.2100
     85 H          18.2593   16.8939   40.3384 H       1  UNL1        0.2095
     86 H           6.8675   19.6785   42.9063 H       1  UNL1        0.2922
     87 H           9.0770   20.0987   43.4933 H       1  UNL1        0.0662
     88 H           5.2779   11.5810   43.4322 H       1  UNL1        0.0654
     89 H          12.6811   18.0812   43.0330 H       1  UNL1        0.2954
     90 H           3.6501   12.4377   42.8308 H       1  UNL1        0.1084
     91 H           1.4458   13.3943   43.3306 H       1  UNL1        0.0683
     92 H           3.9868   15.8254   41.4628 H       1  UNL1        0.0647
     93 H           2.7404   12.7711   45.1563 H       1  UNL1        0.2102
     94 H           2.7594   16.1014   43.8891 H       1  UNL1        0.0648
     95 H           1.8607   16.9383   41.8274 H       1  UNL1        0.0647
     96 H           3.9229   15.2543   39.1230 H       1  UNL1        0.0584
     97 H           2.7636   16.5711   39.3787 H       1  UNL1        0.0584
     98 H           0.0528   15.2472   43.4905 H       1  UNL1        0.2100
     99 H           0.6375   14.3821   41.5393 H       1  UNL1        0.2100
    100 H           1.9428   14.8204   38.0596 H       1  UNL1        0.2095
@<TRIPOS>BOND
     1     1     2    2
     2     2     3    1
     3     2     4    1
     4     3     5   ar
     5     3     6   ar
     6     4     7   ar
     7     4     8   ar
     8     5     9    1
     9     5    10   ar
    10     6    11   ar
    11     6    12    1
    12     7    13    1
    13     7    14   ar
    14     8    15   ar
    15     9    16    1
    16    10    17   ar
    17    12    18    1
    18    14    19   ar
    19    16    20    1
    20    16    21    1
    21    18    22    1
    22    18    23    1
    23    19    24    1
    24    20    25    1
    25    21    26    1
    26    21    27    1
    27    22    28   ar
    28    22    29   ar
    29    23    30   ar
    30    23    31   ar
    31    24    32    2
    32    24    33    1
    33    25    34    1
    34    25    35    1
    35    27    36    1
    36    28    37    1
    37    28    38   ar
    38    29    39   ar
    39    30    40   ar
    40    31    41   ar
    41    34    42    1
    42    35    43    1
    43    37    44    2
    44    38    45    1
    45    38    46   ar
    46    39    47    1
    47    40    48    1
    48    40    49   ar
    49    47    50    2
    50    47    51    1
    51    48    52    1
    52    52    53    1
    53    52    54    1
    54    53    55    1
    55    54    56    1
    56    54    57    1
    57    55    58    1
    58    55    59    1
    59    57    60    1
    60    58    61    1
    61    59    62    1
    62     8    12    1
    63    11    17   ar
    64    15    19   ar
    65    27    34    1
    66    30    37    1
    67    39    46   ar
    68    41    49   ar
    69    57    58    1
    70    10    63    1
    71    11    64    1
    72    12    65    1
    73    13    66    1
    74    14    67    1
    75    15    68    1
    76    16    69    1
    77    17    70    1
    78    18    71    1
    79    21    72    1
    80    25    73    1
    81    26    74    1
    82    27    75    1
    83    29    76    1
    84    31    77    1
    85    33    78    1
    86    34    79    1
    87    35    80    1
    88    35    81    1
    89    36    82    1
    90    41    83    1
    91    42    84    1
    92    43    85    1
    93    45    86    1
    94    46    87    1
    95    49    88    1
    96    51    89    1
    97    52    90    1
    98    54    91    1
    99    55    92    1
   100    56    93    1
   101    57    94    1
   102    58    95    1
   103    59    96    1
   104    59    97    1
   105    60    98    1
   106    61    99    1
   107    62   100    1
@<TRIPOS>SUBSTRUCTURE
     1 UNL1        1 TEMP              0 ****  ****    0 ROOT


##########                                Name:                 122
##########                DOCK_Rotatable_Bonds:                  21
##########                         Heavy_Atoms:                  62
##########                    Molecular_Weight:             862.751
##########                       Formal_Charge:         0.000199914
##########                     HBond_Acceptors:                  20
##########                        HBond_Donors:                  12
##########                    Descriptor_Score:           37.068600
##########          Footprint_Similarity_Score:            9.511836
##########                 desc_FPS_vdw_energy:          -51.133778
##########                  desc_FPS_es_energy:           -4.129544
##########              desc_FPS_vdw+es_energy:          -55.263321
##########                  desc_FPS_num_hbond:                   5
##########                    desc_FPS_vdw_fps:            6.357116
##########                     desc_FPS_es_fps:            3.154720
##########                     desc_FPS_hb_fps:            3.316625
##########              desc_FPS_vdw_fp_numres:                 219
##########               desc_FPS_es_fp_numres:                 219
##########               desc_FPS_hb_fp_numres:                 219
##########                 Pharmacophore_Score:           20.000000
##########              desc_FMS_num_match_tot:                   0
##########              desc_FMS_max_match_ref:                  10
##########              desc_FMS_max_match_mol:                  40
##########                 desc_FMS_match_rate:            4.000000
##########                desc_FMS_match_resid:            0.000000
##########    desc_FMS_num_hydrophobic_matched:                   0
##########          desc_FMS_num_donor_matched:                   0
##########       desc_FMS_num_acceptor_matched:                   0
##########       desc_FMS_num_aromatic_matched:                   0
##########       desc_FMS_num_positive_matched:                   0
##########       desc_FMS_num_negative_matched:                   0
##########           desc_FMS_num_ring_matched:                   0
########## Hungarian_Matching_Similarity_Score:            7.816889
##########       desc_HMS_num_unmtchd_hvy_atms:                  41
##########           desc_HMS_num_ref_hvy_atms:                  23
##########        desc_HMS_rmsd_mtchd_hvy_atms:            3.903846
##########               Property_Volume_Score:            0.260128
##########               desc_VOS_geometric_vo:            0.321779
##########                desc_VOS_hvy_atom_vo:            0.281494
##########            desc_VOS_pos_chrg_atm_vo:            0.104740
##########            desc_VOS_neg_chrg_atm_vo:            0.376272
##########         desc_VOS_hydrophobic_atm_vo:            0.476484
##########         desc_VOS_hydrophilic_atm_vo:            0.000000
##########           Internal_energy_repulsive:           45.248211

@<TRIPOS>MOLECULE
122
 100 107 1 0 0
SMALL
GASTEIGER


@<TRIPOS>ATOM
      1 O          13.8013   16.7709   41.7545 O.2     1  UNL1       -0.2864
      2 C          12.8661   16.0033   41.8803 C.2     1  UNL1        0.2007
      3 C          12.9400   14.7990   42.7891 C.ar    1  UNL1        0.0679
      4 C          11.6272   16.1712   41.0368 C.ar    1  UNL1        0.0675
      5 C          14.1397   14.4391   43.4416 C.ar    1  UNL1        0.1351
      6 C          11.8082   13.9768   42.9223 C.ar    1  UNL1       -0.0247
      7 C          11.5482   17.1592   40.0343 C.ar    1  UNL1        0.1287
      8 C          10.5215   15.3350   41.2613 C.ar    1  UNL1       -0.0240
      9 O          15.2760   15.2063   43.2681 O.3     1  UNL1       -0.4601
     10 C          14.1960   13.2934   44.2341 C.ar    1  UNL1       -0.0191
     11 C          11.9592   12.7410   43.5770 C.ar    1  UNL1       -0.0571
     12 C          10.5133   14.4336   42.4080 C.3     1  UNL1        0.0217
     13 O          12.5843   18.0171   39.7748 O.3     1  UNL1       -0.5060
     14 C          10.3842   17.3182   39.2805 C.ar    1  UNL1       -0.0055
     15 C           9.3647   15.5004   40.4815 C.ar    1  UNL1       -0.0431
     16 C          16.6373   14.7459   43.0971 C.3     1  UNL1        0.2308
     17 C          13.1235   12.4201   44.2587 C.ar    1  UNL1       -0.0580
     18 C           9.5602   14.7903   43.4789 C.3     1  UNL1        0.0217
     19 C           9.2704   16.5078   39.5056 C.ar    1  UNL1        0.0626
     20 O          17.1558   15.1799   41.8247 O.3     1  UNL1       -0.3313
     21 C          17.6262   15.1917   44.2086 C.3     1  UNL1        0.1454
     22 C           9.3951   16.2342   43.6529 C.ar    1  UNL1       -0.0240
     23 C           8.3683   13.9202   43.5441 C.ar    1  UNL1       -0.0247
     24 C           7.9495   16.7500   38.8072 C.2     1  UNL1        0.3369
     25 C          18.3701   14.4882   41.4488 C.3     1  UNL1        0.1140
     26 O          17.1140   14.8609   45.5073 O.3     1  UNL1       -0.3829
     27 C          18.9944   14.5153   43.9292 C.3     1  UNL1        0.1152
     28 C           8.1327   16.8130   43.4657 C.ar    1  UNL1        0.0675
     29 C          10.4948   17.0802   43.8916 C.ar    1  UNL1       -0.0431
     30 C           7.0720   14.4609   43.3974 C.ar    1  UNL1        0.0679
     31 C           8.4544   12.5407   43.7887 C.ar    1  UNL1       -0.0571
     32 O           7.0991   15.8855   38.7499 O.2     1  UNL1       -0.2451
     33 O           7.6829   17.9464   38.3226 O.3     1  UNL1       -0.4771
     34 C          19.4813   14.8246   42.4833 C.3     1  UNL1        0.1120
     35 C          18.7262   14.8892   40.0010 C.3     1  UNL1        0.0731
     36 O          19.9804   14.9663   44.8647 O.3     1  UNL1       -0.3864
     37 C           6.9051   15.9493   43.3787 C.2     1  UNL1        0.2007
     38 C           8.0180   18.2055   43.3562 C.ar    1  UNL1        0.1287
     39 C          10.3636   18.4821   43.8780 C.ar    1  UNL1        0.0626
     40 C           5.9430   13.6178   43.3247 C.ar    1  UNL1        0.1351
     41 C           7.3448   11.7098   43.6948 C.ar    1  UNL1       -0.0580
     42 O          19.8604   16.2053   42.3813 O.3     1  UNL1       -0.3865
     43 O          18.1039   16.1377   39.6744 O.3     1  UNL1       -0.3924
     44 O           5.7936   16.4432   43.4169 O.2     1  UNL1       -0.2864
     45 O           6.8557   18.7360   42.8706 O.3     1  UNL1       -0.5060
     46 C           9.1141   19.0364   43.5906 C.ar    1  UNL1       -0.0055
     47 C          11.5857   19.3594   44.0306 C.2     1  UNL1        0.3369
     48 O           4.6698   14.1669   43.1801 O.3     1  UNL1       -0.4601
     49 C           6.0916   12.2438   43.4288 C.ar    1  UNL1       -0.0191
     50 O          11.5386   20.4311   44.5978 O.2     1  UNL1       -0.2451
     51 O          12.7347   18.9142   43.5679 O.3     1  UNL1       -0.4771
     52 C           3.4614   13.5068   42.7388 C.3     1  UNL1        0.2308
     53 O           3.1264   13.8901   41.3801 O.3     1  UNL1       -0.3313
     54 C           2.2930   13.9091   43.6822 C.3     1  UNL1        0.1454
     55 C           2.9046   15.3119   41.1756 C.3     1  UNL1        0.1140
     56 O           2.6395   13.6215   45.0482 O.3     1  UNL1       -0.3829
     57 C           1.9121   15.4094   43.5344 C.3     1  UNL1        0.1152
     58 C           1.7185   15.8043   42.0533 C.3     1  UNL1        0.1120
     59 C           2.6995   15.5650   39.6607 C.3     1  UNL1        0.0731
     60 O           0.6601   15.6586   44.1886 O.3     1  UNL1       -0.3864
     61 O           0.4592   15.2822   41.6116 O.3     1  UNL1       -0.3865
     62 O           2.5156   16.9587   39.3844 O.3     1  UNL1       -0.3924
     63 H          15.0941   13.0421   44.7904 H       1  UNL1        0.0654
     64 H          11.1659   12.0075   43.5862 H       1  UNL1        0.0621
     65 H          10.5588   13.5042   41.8175 H       1  UNL1        0.0407
     66 H          12.2382   18.8297   39.3183 H       1  UNL1        0.2922
     67 H          10.3395   18.1192   38.5467 H       1  UNL1        0.0662
     68 H           8.4951   14.8810   40.6909 H       1  UNL1        0.0629
     69 H          16.5708   13.6467   43.0706 H       1  UNL1        0.1084
     70 H          13.1949   11.4854   44.8093 H       1  UNL1        0.0619
     71 H           9.7217   14.4760   44.5219 H       1  UNL1        0.0407
     72 H          17.7729   16.2717   44.1667 H       1  UNL1        0.0683
     73 H          18.1767   13.4111   41.4712 H       1  UNL1        0.0647
     74 H          16.1486   14.7502   45.4702 H       1  UNL1        0.2102
     75 H          18.8780   13.4331   44.0373 H       1  UNL1        0.0648
     76 H          11.4821   16.6449   44.0289 H       1  UNL1        0.0629
     77 H           9.3866   12.0684   44.0588 H       1  UNL1        0.0621
     78 H           7.0225   17.9456   37.6069 H       1  UNL1        0.2954
     79 H          20.3603   14.2085   42.2719 H       1  UNL1        0.0647
     80 H          18.3806   14.1173   39.3087 H       1  UNL1        0.0584
     81 H          19.8095   14.9967   39.8963 H       1  UNL1        0.0584
     82 H          19.9560   15.9453   44.8757 H       1  UNL1        0.2100
     83 H           7.4566   10.6379   43.8328 H       1  UNL1        0.0619
     84 H          19.8836   16.4535   41.4383 H       1  UNL1        0.2100
     85 H          18.3595   16.8132   40.3310 H       1  UNL1        0.2095
     86 H           6.7967   19.6836   42.8712 H       1  UNL1        0.2922
     87 H           9.0014   20.1100   43.4706 H       1  UNL1        0.0662
     88 H           5.2369   11.5775   43.3587 H       1  UNL1        0.0654
     89 H          12.6378   18.0640   43.0989 H       1  UNL1        0.2954
     90 H           3.6218   12.4175   42.7728 H       1  UNL1        0.1084
     91 H           1.4238   13.3033   43.4121 H       1  UNL1        0.0683
     92 H           3.8042   15.8484   41.4855 H       1  UNL1        0.0647
     93 H           1.8767   13.8135   45.6333 H       1  UNL1        0.2102
     94 H           2.6985   16.0272   43.9785 H       1  UNL1        0.0648
     95 H           1.6736   16.8960   41.9903 H       1  UNL1        0.0647
     96 H           1.8105   15.0206   39.3305 H       1  UNL1        0.0584
     97 H           3.5605   15.1874   39.1004 H       1  UNL1        0.0584
     98 H          -0.0026   15.1103   43.6992 H       1  UNL1        0.2100
     99 H           0.5146   14.3160   41.6526 H       1  UNL1        0.2100
    100 H           2.3658   17.0651   38.4255 H       1  UNL1        0.2095
@<TRIPOS>BOND
     1     1     2    2
     2     2     3    1
     3     2     4    1
     4     3     5   ar
     5     3     6   ar
     6     4     7   ar
     7     4     8   ar
     8     5     9    1
     9     5    10   ar
    10     6    11   ar
    11     6    12    1
    12     7    13    1
    13     7    14   ar
    14     8    15   ar
    15     9    16    1
    16    10    17   ar
    17    12    18    1
    18    14    19   ar
    19    16    20    1
    20    16    21    1
    21    18    22    1
    22    18    23    1
    23    19    24    1
    24    20    25    1
    25    21    26    1
    26    21    27    1
    27    22    28   ar
    28    22    29   ar
    29    23    30   ar
    30    23    31   ar
    31    24    32    2
    32    24    33    1
    33    25    34    1
    34    25    35    1
    35    27    36    1
    36    28    37    1
    37    28    38   ar
    38    29    39   ar
    39    30    40   ar
    40    31    41   ar
    41    34    42    1
    42    35    43    1
    43    37    44    2
    44    38    45    1
    45    38    46   ar
    46    39    47    1
    47    40    48    1
    48    40    49   ar
    49    47    50    2
    50    47    51    1
    51    48    52    1
    52    52    53    1
    53    52    54    1
    54    53    55    1
    55    54    56    1
    56    54    57    1
    57    55    58    1
    58    55    59    1
    59    57    60    1
    60    58    61    1
    61    59    62    1
    62     8    12    1
    63    11    17   ar
    64    15    19   ar
    65    27    34    1
    66    30    37    1
    67    39    46   ar
    68    41    49   ar
    69    57    58    1
    70    10    63    1
    71    11    64    1
    72    12    65    1
    73    13    66    1
    74    14    67    1
    75    15    68    1
    76    16    69    1
    77    17    70    1
    78    18    71    1
    79    21    72    1
    80    25    73    1
    81    26    74    1
    82    27    75    1
    83    29    76    1
    84    31    77    1
    85    33    78    1
    86    34    79    1
    87    35    80    1
    88    35    81    1
    89    36    82    1
    90    41    83    1
    91    42    84    1
    92    43    85    1
    93    45    86    1
    94    46    87    1
    95    49    88    1
    96    51    89    1
    97    52    90    1
    98    54    91    1
    99    55    92    1
   100    56    93    1
   101    57    94    1
   102    58    95    1
   103    59    96    1
   104    59    97    1
   105    60    98    1
   106    61    99    1
   107    62   100    1
@<TRIPOS>SUBSTRUCTURE
     1 UNL1        1 TEMP              0 ****  ****    0 ROOT


##########                                Name:                 122
##########                DOCK_Rotatable_Bonds:                  21
##########                         Heavy_Atoms:                  62
##########                    Molecular_Weight:             862.751
##########                       Formal_Charge:         0.000199914
##########                     HBond_Acceptors:                  20
##########                        HBond_Donors:                  12
##########                    Descriptor_Score:           37.120964
##########          Footprint_Similarity_Score:            9.555102
##########                 desc_FPS_vdw_energy:          -50.860912
##########                  desc_FPS_es_energy:           -4.032198
##########              desc_FPS_vdw+es_energy:          -54.893112
##########                  desc_FPS_num_hbond:                   4
##########                    desc_FPS_vdw_fps:            6.419049
##########                     desc_FPS_es_fps:            3.136054
##########                     desc_FPS_hb_fps:            2.449490
##########              desc_FPS_vdw_fp_numres:                 219
##########               desc_FPS_es_fp_numres:                 219
##########               desc_FPS_hb_fp_numres:                 219
##########                 Pharmacophore_Score:           20.000000
##########              desc_FMS_num_match_tot:                   0
##########              desc_FMS_max_match_ref:                  10
##########              desc_FMS_max_match_mol:                  40
##########                 desc_FMS_match_rate:            4.000000
##########                desc_FMS_match_resid:            0.000000
##########    desc_FMS_num_hydrophobic_matched:                   0
##########          desc_FMS_num_donor_matched:                   0
##########       desc_FMS_num_acceptor_matched:                   0
##########       desc_FMS_num_aromatic_matched:                   0
##########       desc_FMS_num_positive_matched:                   0
##########       desc_FMS_num_negative_matched:                   0
##########           desc_FMS_num_ring_matched:                   0
########## Hungarian_Matching_Similarity_Score:            7.823949
##########       desc_HMS_num_unmtchd_hvy_atms:                  41
##########           desc_HMS_num_ref_hvy_atms:                  23
##########        desc_HMS_rmsd_mtchd_hvy_atms:            3.910905
##########               Property_Volume_Score:            0.258085
##########               desc_VOS_geometric_vo:            0.322085
##########                desc_VOS_hvy_atom_vo:            0.281667
##########            desc_VOS_pos_chrg_atm_vo:            0.104252
##########            desc_VOS_neg_chrg_atm_vo:            0.375306
##########         desc_VOS_hydrophobic_atm_vo:            0.465201
##########         desc_VOS_hydrophilic_atm_vo:            0.000000
##########           Internal_energy_repulsive:           45.510437

@<TRIPOS>MOLECULE
122
 100 107 1 0 0
SMALL
GASTEIGER


@<TRIPOS>ATOM
      1 O          13.6262   16.7174   41.5577 O.2     1  UNL1       -0.2864
      2 C          12.6974   15.9487   41.7200 C.2     1  UNL1        0.2007
      3 C          12.8173   14.7288   42.6025 C.ar    1  UNL1        0.0679
      4 C          11.4155   16.1327   40.9470 C.ar    1  UNL1        0.0675
      5 C          14.0494   14.3562   43.1835 C.ar    1  UNL1        0.1351
      6 C          11.6926   13.9056   42.7818 C.ar    1  UNL1       -0.0247
      7 C          11.2851   17.1382   39.9674 C.ar    1  UNL1        0.1287
      8 C          10.3217   15.2940   41.2159 C.ar    1  UNL1       -0.0240
      9 O          15.1764   15.1250   42.9628 O.3     1  UNL1       -0.4601
     10 C          14.1457   13.1967   43.9519 C.ar    1  UNL1       -0.0191
     11 C          11.8758   12.6585   43.4059 C.ar    1  UNL1       -0.0571
     12 C          10.3729   14.3728   42.3455 C.3     1  UNL1        0.0217
     13 O          12.3075   17.9993   39.6677 O.3     1  UNL1       -0.5060
     14 C          10.0827   17.3116   39.2799 C.ar    1  UNL1       -0.0055
     15 C           9.1251   15.4744   40.5020 C.ar    1  UNL1       -0.0431
     16 C          16.5429   14.6711   42.8174 C.3     1  UNL1        0.2308
     17 C          13.0741   12.3244   44.0188 C.ar    1  UNL1       -0.0580
     18 C           9.4792   14.7119   43.4719 C.3     1  UNL1        0.0217
     19 C           8.9809   16.4987   39.5502 C.ar    1  UNL1        0.0626
     20 O          17.0640   15.0581   41.5310 O.3     1  UNL1       -0.3313
     21 C          17.5216   15.1714   43.9147 C.3     1  UNL1        0.1454
     22 C           9.3222   16.1528   43.6759 C.ar    1  UNL1       -0.0240
     23 C           8.2937   13.8386   43.5892 C.ar    1  UNL1       -0.0247
     24 C           7.6250   16.7545   38.9277 C.2     1  UNL1        0.3369
     25 C          18.2869   14.3636   41.1896 C.3     1  UNL1        0.1140
     26 O          17.0056   14.8887   45.2233 O.3     1  UNL1       -0.3829
     27 C          18.8976   14.4975   43.6699 C.3     1  UNL1        0.1152
     28 C           8.0507   16.7317   43.5663 C.ar    1  UNL1        0.0675
     29 C          10.4322   16.9974   43.8668 C.ar    1  UNL1       -0.0431
     30 C           6.9907   14.3788   43.5213 C.ar    1  UNL1        0.0679
     31 C           8.3946   12.4558   43.8084 C.ar    1  UNL1       -0.0571
     32 O           6.8018   15.8684   38.8242 O.2     1  UNL1       -0.2451
     33 O           7.2996   17.9793   38.5651 O.3     1  UNL1       -0.4771
     34 C          19.3893   14.7525   42.2150 C.3     1  UNL1        0.1120
     35 C          18.6468   14.7088   39.7284 C.3     1  UNL1        0.0731
     36 O          19.8743   14.9957   44.5912 O.3     1  UNL1       -0.3864
     37 C           6.8212   15.8670   43.5336 C.2     1  UNL1        0.2007
     38 C           7.9286   18.1255   43.4837 C.ar    1  UNL1        0.1287
     39 C          10.2988   18.3991   43.8809 C.ar    1  UNL1        0.0626
     40 C           5.8604   13.5346   43.4978 C.ar    1  UNL1        0.1351
     41 C           7.2825   11.6241   43.7628 C.ar    1  UNL1       -0.0580
     42 O          19.7558   16.1315   42.0588 O.3     1  UNL1       -0.3865
     43 O          18.0272   15.9449   39.3532 O.3     1  UNL1       -0.3924
     44 O           5.7128   16.3581   43.6396 O.2     1  UNL1       -0.2864
     45 O           6.7409   18.6607   43.0701 O.3     1  UNL1       -0.5060
     46 C           9.0348   18.9551   43.6703 C.ar    1  UNL1       -0.0055
     47 C          11.5264   19.2764   43.9797 C.2     1  UNL1        0.3369
     48 O           4.5805   14.0832   43.4309 O.3     1  UNL1       -0.4601
     49 C           6.0160   12.1596   43.5734 C.ar    1  UNL1       -0.0191
     50 O          11.4984   20.3585   44.5282 O.2     1  UNL1       -0.2451
     51 O          12.6599   18.8204   43.4901 O.3     1  UNL1       -0.4771
     52 C           3.3443   13.4174   43.0853 C.3     1  UNL1        0.2308
     53 O           2.8384   13.8901   41.8102 O.3     1  UNL1       -0.3313
     54 C           2.2888   13.7078   44.1892 C.3     1  UNL1        0.1454
     55 C           2.5584   15.3149   41.7459 C.3     1  UNL1        0.1140
     56 O           2.8047   13.3303   45.4776 O.3     1  UNL1       -0.3829
     57 C           1.8559   15.2012   44.2060 C.3     1  UNL1        0.1152
     58 C           1.4751   15.6994   42.7939 C.3     1  UNL1        0.1120
     59 C           2.1657   15.6740   40.2906 C.3     1  UNL1        0.0731
     60 O           0.6862   15.3578   45.0214 O.3     1  UNL1       -0.3864
     61 O           0.1850   15.1694   42.4648 O.3     1  UNL1       -0.3865
     62 O           3.1581   15.2303   39.3573 O.3     1  UNL1       -0.3924
     63 H          15.0717   12.9348   44.4549 H       1  UNL1        0.0654
     64 H          11.0825   11.9258   43.4449 H       1  UNL1        0.0621
     65 H          10.3848   13.4538   41.7374 H       1  UNL1        0.0407
     66 H          11.9399   18.8171   39.2384 H       1  UNL1        0.2922
     67 H          10.0005   18.1253   38.5635 H       1  UNL1        0.0662
     68 H           8.2667   14.8524   40.7469 H       1  UNL1        0.0629
     69 H          16.4870   13.5713   42.8354 H       1  UNL1        0.1084
     70 H          13.1729   11.3802   44.5485 H       1  UNL1        0.0619
     71 H           9.6976   14.3827   44.4998 H       1  UNL1        0.0407
     72 H          17.6582   16.2502   43.8297 H       1  UNL1        0.0683
     73 H          18.1035   13.2864   41.2548 H       1  UNL1        0.0647
     74 H          16.0422   14.7621   45.1851 H       1  UNL1        0.2102
     75 H          18.7909   13.4195   43.8214 H       1  UNL1        0.0648
     76 H          11.4260   16.5621   43.9436 H       1  UNL1        0.0629
     77 H           9.3407   11.9814   44.0203 H       1  UNL1        0.0621
     78 H           6.5723   18.0207   37.9188 H       1  UNL1        0.2954
     79 H          20.2752   14.1369   42.0333 H       1  UNL1        0.0647
     80 H          18.3017   13.9117   39.0652 H       1  UNL1        0.0584
     81 H          19.7305   14.8107   39.6223 H       1  UNL1        0.0584
     82 H          19.8906   15.9716   44.5104 H       1  UNL1        0.2100
     83 H           7.4029   10.5506   43.8787 H       1  UNL1        0.0619
     84 H          19.7597   16.3473   41.1076 H       1  UNL1        0.2100
     85 H          18.2821   16.6444   39.9844 H       1  UNL1        0.2095
     86 H           6.6772   19.6076   43.0978 H       1  UNL1        0.2922
     87 H           8.9145   20.0301   43.5725 H       1  UNL1        0.0662
     88 H           5.1595   11.4927   43.5402 H       1  UNL1        0.0654
     89 H          12.5455   17.9665   43.0318 H       1  UNL1        0.2954
     90 H           3.5346   12.3348   43.0143 H       1  UNL1        0.1084
     91 H           1.4087   13.0948   43.9771 H       1  UNL1        0.0683
     92 H           3.4753   15.8569   41.9883 H       1  UNL1        0.0647
     93 H           2.1040   13.4214   46.1572 H       1  UNL1        0.2102
     94 H           2.6746   15.8102   44.6010 H       1  UNL1        0.0648
     95 H           1.3960   16.7905   42.8227 H       1  UNL1        0.0647
     96 H           2.0681   16.7601   40.2106 H       1  UNL1        0.0584
     97 H           1.1989   15.2239   40.0442 H       1  UNL1        0.0584
     98 H          -0.0171   14.8260   44.5721 H       1  UNL1        0.2100
     99 H           0.2634   14.2041   42.4463 H       1  UNL1        0.2100
    100 H           2.8704   15.4826   38.4591 H       1  UNL1        0.2095
@<TRIPOS>BOND
     1     1     2    2
     2     2     3    1
     3     2     4    1
     4     3     5   ar
     5     3     6   ar
     6     4     7   ar
     7     4     8   ar
     8     5     9    1
     9     5    10   ar
    10     6    11   ar
    11     6    12    1
    12     7    13    1
    13     7    14   ar
    14     8    15   ar
    15     9    16    1
    16    10    17   ar
    17    12    18    1
    18    14    19   ar
    19    16    20    1
    20    16    21    1
    21    18    22    1
    22    18    23    1
    23    19    24    1
    24    20    25    1
    25    21    26    1
    26    21    27    1
    27    22    28   ar
    28    22    29   ar
    29    23    30   ar
    30    23    31   ar
    31    24    32    2
    32    24    33    1
    33    25    34    1
    34    25    35    1
    35    27    36    1
    36    28    37    1
    37    28    38   ar
    38    29    39   ar
    39    30    40   ar
    40    31    41   ar
    41    34    42    1
    42    35    43    1
    43    37    44    2
    44    38    45    1
    45    38    46   ar
    46    39    47    1
    47    40    48    1
    48    40    49   ar
    49    47    50    2
    50    47    51    1
    51    48    52    1
    52    52    53    1
    53    52    54    1
    54    53    55    1
    55    54    56    1
    56    54    57    1
    57    55    58    1
    58    55    59    1
    59    57    60    1
    60    58    61    1
    61    59    62    1
    62     8    12    1
    63    11    17   ar
    64    15    19   ar
    65    27    34    1
    66    30    37    1
    67    39    46   ar
    68    41    49   ar
    69    57    58    1
    70    10    63    1
    71    11    64    1
    72    12    65    1
    73    13    66    1
    74    14    67    1
    75    15    68    1
    76    16    69    1
    77    17    70    1
    78    18    71    1
    79    21    72    1
    80    25    73    1
    81    26    74    1
    82    27    75    1
    83    29    76    1
    84    31    77    1
    85    33    78    1
    86    34    79    1
    87    35    80    1
    88    35    81    1
    89    36    82    1
    90    41    83    1
    91    42    84    1
    92    43    85    1
    93    45    86    1
    94    46    87    1
    95    49    88    1
    96    51    89    1
    97    52    90    1
    98    54    91    1
    99    55    92    1
   100    56    93    1
   101    57    94    1
   102    58    95    1
   103    59    96    1
   104    59    97    1
   105    60    98    1
   106    61    99    1
   107    62   100    1
@<TRIPOS>SUBSTRUCTURE
     1 UNL1        1 TEMP              0 ****  ****    0 ROOT


##########                                Name:                 123
##########                DOCK_Rotatable_Bonds:                   2
##########                         Heavy_Atoms:                  14
##########                    Molecular_Weight:             192.171
##########                       Formal_Charge:         0.000100002
##########                     HBond_Acceptors:                   4
##########                        HBond_Donors:                   1
##########                    Descriptor_Score:           41.519913
##########          Footprint_Similarity_Score:           12.603444
##########                 desc_FPS_vdw_energy:          -26.407804
##########                  desc_FPS_es_energy:           -1.527063
##########              desc_FPS_vdw+es_energy:          -27.934868
##########                  desc_FPS_num_hbond:                   1
##########                    desc_FPS_vdw_fps:           10.062640
##########                     desc_FPS_es_fps:            2.540804
##########                     desc_FPS_hb_fps:            1.000000
##########              desc_FPS_vdw_fp_numres:                 219
##########               desc_FPS_es_fp_numres:                 219
##########               desc_FPS_hb_fp_numres:                 219
##########                 Pharmacophore_Score:           20.000000
##########              desc_FMS_num_match_tot:                   0
##########              desc_FMS_max_match_ref:                  10
##########              desc_FMS_max_match_mol:                   7
##########                 desc_FMS_match_rate:            4.000000
##########                desc_FMS_match_resid:            0.000000
##########    desc_FMS_num_hydrophobic_matched:                   0
##########          desc_FMS_num_donor_matched:                   0
##########       desc_FMS_num_acceptor_matched:                   0
##########       desc_FMS_num_aromatic_matched:                   0
##########       desc_FMS_num_positive_matched:                   0
##########       desc_FMS_num_negative_matched:                   0
##########           desc_FMS_num_ring_matched:                   0
########## Hungarian_Matching_Similarity_Score:            8.916469
##########       desc_HMS_num_unmtchd_hvy_atms:                  13
##########           desc_HMS_num_ref_hvy_atms:                  23
##########        desc_HMS_rmsd_mtchd_hvy_atms:           11.090382
##########               Property_Volume_Score:            0.000000
##########               desc_VOS_geometric_vo:            0.000000
##########                desc_VOS_hvy_atom_vo:            0.000000
##########            desc_VOS_pos_chrg_atm_vo:            0.000000
##########            desc_VOS_neg_chrg_atm_vo:            0.000000
##########         desc_VOS_hydrophobic_atm_vo:            0.000000
##########         desc_VOS_hydrophilic_atm_vo:            0.000000
##########           Internal_energy_repulsive:            2.695370

@<TRIPOS>MOLECULE
123
 22 23 1 0 0
SMALL
GASTEIGER


@<TRIPOS>ATOM
      1 O          21.0780    7.7209   43.0627 O.2     1  UNL1       -0.2452
      2 C          21.6711    8.2082   42.1229 C.ar    1  UNL1        0.3372
      3 O          21.7026    7.5925   40.9148 O.2     1  UNL1       -0.4220
      4 C          22.4004    9.4853   42.1895 C.ar    1  UNL1        0.0236
      5 C          22.3565    8.0795   39.8014 C.ar    1  UNL1        0.1427
      6 C          23.0905   10.0338   41.0556 C.ar    1  UNL1       -0.0442
      7 C          23.0642    9.3254   39.8618 C.ar    1  UNL1        0.0213
      8 C          22.3130    7.3382   38.5753 C.ar    1  UNL1        0.0265
      9 C          23.7063    9.7868   38.7152 C.ar    1  UNL1       -0.0056
     10 C          22.9687    7.8345   37.4479 C.ar    1  UNL1        0.1620
     11 C          23.6680    9.0614   37.5195 C.ar    1  UNL1        0.1621
     12 O          22.8986    7.0893   36.3032 O.3     1  UNL1       -0.5032
     13 O          24.3566    9.6483   36.4636 O.3     1  UNL1       -0.4914
     14 C          24.4950   11.0677   36.2170 C.3     1  UNL1        0.0790
     15 H          22.3788    9.9829   43.1536 H       1  UNL1        0.0689
     16 H          23.6196   10.9806   41.1284 H       1  UNL1        0.0627
     17 H          21.7706    6.3967   38.5372 H       1  UNL1        0.0692
     18 H          24.2491   10.7290   38.7450 H       1  UNL1        0.0662
     19 H          23.6660    6.4930   36.2485 H       1  UNL1        0.2923
     20 H          25.0861   11.2134   35.3095 H       1  UNL1        0.0660
     21 H          25.0059   11.5372   37.0620 H       1  UNL1        0.0660
     22 H          23.5056   11.5131   36.0804 H       1  UNL1        0.0660
@<TRIPOS>BOND
     1     1     2    2
     2     2     3   ar
     3     2     4   ar
     4     3     5   ar
     5     4     6   ar
     6     5     7   ar
     7     5     8   ar
     8     7     9   ar
     9     8    10   ar
    10     9    11   ar
    11    10    12    1
    12    11    13    1
    13    13    14    1
    14     6     7   ar
    15    10    11   ar
    16     4    15    1
    17     6    16    1
    18     8    17    1
    19     9    18    1
    20    12    19    1
    21    14    20    1
    22    14    21    1
    23    14    22    1
@<TRIPOS>SUBSTRUCTURE
     1 UNL1        1 TEMP              0 ****  ****    0 ROOT


##########                                Name:                 123
##########                DOCK_Rotatable_Bonds:                   2
##########                         Heavy_Atoms:                  14
##########                    Molecular_Weight:             192.171
##########                       Formal_Charge:         0.000100002
##########                     HBond_Acceptors:                   4
##########                        HBond_Donors:                   1
##########                    Descriptor_Score:           41.521748
##########          Footprint_Similarity_Score:           12.621361
##########                 desc_FPS_vdw_energy:          -26.334719
##########                  desc_FPS_es_energy:           -0.646858
##########              desc_FPS_vdw+es_energy:          -26.981577
##########                  desc_FPS_num_hbond:                   1
##########                    desc_FPS_vdw_fps:           10.126836
##########                     desc_FPS_es_fps:            2.494524
##########                     desc_FPS_hb_fps:            1.000000
##########              desc_FPS_vdw_fp_numres:                 219
##########               desc_FPS_es_fp_numres:                 219
##########               desc_FPS_hb_fp_numres:                 219
##########                 Pharmacophore_Score:           20.000000
##########              desc_FMS_num_match_tot:                   0
##########              desc_FMS_max_match_ref:                  10
##########              desc_FMS_max_match_mol:                   7
##########                 desc_FMS_match_rate:            4.000000
##########                desc_FMS_match_resid:            0.000000
##########    desc_FMS_num_hydrophobic_matched:                   0
##########          desc_FMS_num_donor_matched:                   0
##########       desc_FMS_num_acceptor_matched:                   0
##########       desc_FMS_num_aromatic_matched:                   0
##########       desc_FMS_num_positive_matched:                   0
##########       desc_FMS_num_negative_matched:                   0
##########           desc_FMS_num_ring_matched:                   0
########## Hungarian_Matching_Similarity_Score:            8.900388
##########       desc_HMS_num_unmtchd_hvy_atms:                  13
##########           desc_HMS_num_ref_hvy_atms:                  23
##########        desc_HMS_rmsd_mtchd_hvy_atms:           11.074301
##########               Property_Volume_Score:            0.000000
##########               desc_VOS_geometric_vo:            0.000000
##########                desc_VOS_hvy_atom_vo:            0.000000
##########            desc_VOS_pos_chrg_atm_vo:            0.000000
##########            desc_VOS_neg_chrg_atm_vo:            0.000000
##########         desc_VOS_hydrophobic_atm_vo:            0.000000
##########         desc_VOS_hydrophilic_atm_vo:            0.000000
##########           Internal_energy_repulsive:            3.446624

@<TRIPOS>MOLECULE
123
 22 23 1 0 0
SMALL
GASTEIGER


@<TRIPOS>ATOM
      1 O          21.1145    7.7370   43.0702 O.2     1  UNL1       -0.2452
      2 C          21.6766    8.2332   42.1161 C.ar    1  UNL1        0.3372
      3 O          21.7360    7.5918   40.9225 O.2     1  UNL1       -0.4220
      4 C          22.3365    9.5488   42.1489 C.ar    1  UNL1        0.0236
      5 C          22.3581    8.0869   39.7945 C.ar    1  UNL1        0.1427
      6 C          22.9915   10.1066   40.9989 C.ar    1  UNL1       -0.0442
      7 C          22.9982    9.3699   39.8221 C.ar    1  UNL1        0.0213
      8 C          22.3492    7.3157   38.5862 C.ar    1  UNL1        0.0265
      9 C          23.6097    9.8380   38.6616 C.ar    1  UNL1       -0.0056
     10 C          22.9726    7.8198   37.4440 C.ar    1  UNL1        0.1620
     11 C          23.6053    9.0837   37.4832 C.ar    1  UNL1        0.1621
     12 O          22.9377    7.0451   36.3173 O.3     1  UNL1       -0.5032
     13 O          24.2570    9.6817   36.4102 O.3     1  UNL1       -0.4914
     14 C          24.5957   11.0835   36.2893 C.3     1  UNL1        0.0790
     15 H          22.2923   10.0670   43.1013 H       1  UNL1        0.0689
     16 H          23.4693   11.0819   41.0467 H       1  UNL1        0.0627
     17 H          21.8580    6.3459   38.5730 H       1  UNL1        0.0692
     18 H          24.1013   10.8083   38.6665 H       1  UNL1        0.0662
     19 H          22.4844    6.2049   36.5069 H       1  UNL1        0.2923
     20 H          25.0967   11.2453   35.3318 H       1  UNL1        0.0660
     21 H          25.2680   11.3684   37.1032 H       1  UNL1        0.0660
     22 H          23.6830   11.6846   36.3269 H       1  UNL1        0.0660
@<TRIPOS>BOND
     1     1     2    2
     2     2     3   ar
     3     2     4   ar
     4     3     5   ar
     5     4     6   ar
     6     5     7   ar
     7     5     8   ar
     8     7     9   ar
     9     8    10   ar
    10     9    11   ar
    11    10    12    1
    12    11    13    1
    13    13    14    1
    14     6     7   ar
    15    10    11   ar
    16     4    15    1
    17     6    16    1
    18     8    17    1
    19     9    18    1
    20    12    19    1
    21    14    20    1
    22    14    21    1
    23    14    22    1
@<TRIPOS>SUBSTRUCTURE
     1 UNL1        1 TEMP              0 ****  ****    0 ROOT


##########                                Name:                 123
##########                DOCK_Rotatable_Bonds:                   2
##########                         Heavy_Atoms:                  14
##########                    Molecular_Weight:             192.171
##########                       Formal_Charge:         0.000100002
##########                     HBond_Acceptors:                   4
##########                        HBond_Donors:                   1
##########                    Descriptor_Score:           41.332134
##########          Footprint_Similarity_Score:           12.329940
##########                 desc_FPS_vdw_energy:          -26.649029
##########                  desc_FPS_es_energy:           -0.110288
##########              desc_FPS_vdw+es_energy:          -26.759317
##########                  desc_FPS_num_hbond:                   1
##########                    desc_FPS_vdw_fps:           10.062129
##########                     desc_FPS_es_fps:            2.267811
##########                     desc_FPS_hb_fps:            1.000000
##########              desc_FPS_vdw_fp_numres:                 219
##########               desc_FPS_es_fp_numres:                 219
##########               desc_FPS_hb_fp_numres:                 219
##########                 Pharmacophore_Score:           20.000000
##########              desc_FMS_num_match_tot:                   0
##########              desc_FMS_max_match_ref:                  10
##########              desc_FMS_max_match_mol:                   7
##########                 desc_FMS_match_rate:            4.000000
##########                desc_FMS_match_resid:            0.000000
##########    desc_FMS_num_hydrophobic_matched:                   0
##########          desc_FMS_num_donor_matched:                   0
##########       desc_FMS_num_acceptor_matched:                   0
##########       desc_FMS_num_aromatic_matched:                   0
##########       desc_FMS_num_positive_matched:                   0
##########       desc_FMS_num_negative_matched:                   0
##########           desc_FMS_num_ring_matched:                   0
########## Hungarian_Matching_Similarity_Score:            9.002193
##########       desc_HMS_num_unmtchd_hvy_atms:                  13
##########           desc_HMS_num_ref_hvy_atms:                  23
##########        desc_HMS_rmsd_mtchd_hvy_atms:           11.176106
##########               Property_Volume_Score:            0.000000
##########               desc_VOS_geometric_vo:            0.000000
##########                desc_VOS_hvy_atom_vo:            0.000000
##########            desc_VOS_pos_chrg_atm_vo:            0.000000
##########            desc_VOS_neg_chrg_atm_vo:            0.000000
##########         desc_VOS_hydrophobic_atm_vo:            0.000000
##########         desc_VOS_hydrophilic_atm_vo:            0.000000
##########           Internal_energy_repulsive:            4.433521

@<TRIPOS>MOLECULE
123
 22 23 1 0 0
SMALL
GASTEIGER


@<TRIPOS>ATOM
      1 O          21.0082    7.8846   43.0666 O.2     1  UNL1       -0.2452
      2 C          21.6179    8.3290   42.1162 C.ar    1  UNL1        0.3372
      3 O          21.6084    7.6971   40.9161 O.2     1  UNL1       -0.4220
      4 C          22.4119    9.5680   42.1607 C.ar    1  UNL1        0.0236
      5 C          22.2775    8.1359   39.7917 C.ar    1  UNL1        0.1427
      6 C          23.1201   10.0660   41.0148 C.ar    1  UNL1       -0.0442
      7 C          23.0483    9.3447   39.8306 C.ar    1  UNL1        0.0213
      8 C          22.1865    7.3823   38.5758 C.ar    1  UNL1        0.0265
      9 C          23.7040    9.7580   38.6734 C.ar    1  UNL1       -0.0056
     10 C          22.8578    7.8300   37.4372 C.ar    1  UNL1        0.1620
     11 C          23.6192    9.0204   37.4876 C.ar    1  UNL1        0.1621
     12 O          22.7406    7.0748   36.3029 O.3     1  UNL1       -0.5032
     13 O          24.3284    9.5579   36.4192 O.3     1  UNL1       -0.4914
     14 C          24.4083    9.0078   35.0829 C.3     1  UNL1        0.0790
     15 H          22.4233   10.0783   43.1183 H       1  UNL1        0.0689
     16 H          23.6973   10.9854   41.0713 H       1  UNL1        0.0627
     17 H          21.5965    6.4693   38.5540 H       1  UNL1        0.0692
     18 H          24.2943   10.6715   38.6869 H       1  UNL1        0.0662
     19 H          22.1864    6.2945   36.4802 H       1  UNL1        0.2923
     20 H          25.0442    9.6530   34.4718 H       1  UNL1        0.0660
     21 H          23.4072    8.9653   34.6449 H       1  UNL1        0.0660
     22 H          24.8436    8.0056   35.1256 H       1  UNL1        0.0660
@<TRIPOS>BOND
     1     1     2    2
     2     2     3   ar
     3     2     4   ar
     4     3     5   ar
     5     4     6   ar
     6     5     7   ar
     7     5     8   ar
     8     7     9   ar
     9     8    10   ar
    10     9    11   ar
    11    10    12    1
    12    11    13    1
    13    13    14    1
    14     6     7   ar
    15    10    11   ar
    16     4    15    1
    17     6    16    1
    18     8    17    1
    19     9    18    1
    20    12    19    1
    21    14    20    1
    22    14    21    1
    23    14    22    1
@<TRIPOS>SUBSTRUCTURE
     1 UNL1        1 TEMP              0 ****  ****    0 ROOT


##########                                Name:                 125
##########                DOCK_Rotatable_Bonds:                   4
##########                         Heavy_Atoms:                  20
##########                    Molecular_Weight:             272.257
##########                       Formal_Charge:         0.000299931
##########                     HBond_Acceptors:                   5
##########                        HBond_Donors:                   3
##########                    Descriptor_Score:           27.471640
##########          Footprint_Similarity_Score:            7.020411
##########                 desc_FPS_vdw_energy:          -27.635191
##########                  desc_FPS_es_energy:           -5.390684
##########              desc_FPS_vdw+es_energy:          -33.025875
##########                  desc_FPS_num_hbond:                   3
##########                    desc_FPS_vdw_fps:            4.857113
##########                     desc_FPS_es_fps:            2.163298
##########                     desc_FPS_hb_fps:            1.732051
##########              desc_FPS_vdw_fp_numres:                 219
##########               desc_FPS_es_fp_numres:                 219
##########               desc_FPS_hb_fp_numres:                 219
##########                 Pharmacophore_Score:           20.000000
##########              desc_FMS_num_match_tot:                   0
##########              desc_FMS_max_match_ref:                  10
##########              desc_FMS_max_match_mol:                  11
##########                 desc_FMS_match_rate:            4.000000
##########                desc_FMS_match_resid:            0.000000
##########    desc_FMS_num_hydrophobic_matched:                   0
##########          desc_FMS_num_donor_matched:                   0
##########       desc_FMS_num_acceptor_matched:                   0
##########       desc_FMS_num_aromatic_matched:                   0
##########       desc_FMS_num_positive_matched:                   0
##########       desc_FMS_num_negative_matched:                   0
##########           desc_FMS_num_ring_matched:                   0
########## Hungarian_Matching_Similarity_Score:            0.727143
##########       desc_HMS_num_unmtchd_hvy_atms:                  11
##########           desc_HMS_num_ref_hvy_atms:                  23
##########        desc_HMS_rmsd_mtchd_hvy_atms:            3.335839
##########               Property_Volume_Score:            0.275915
##########               desc_VOS_geometric_vo:            0.481781
##########                desc_VOS_hvy_atom_vo:            0.483487
##########            desc_VOS_pos_chrg_atm_vo:            0.209436
##########            desc_VOS_neg_chrg_atm_vo:            0.179653
##########         desc_VOS_hydrophobic_atm_vo:            0.236619
##########         desc_VOS_hydrophilic_atm_vo:            0.064511
##########           Internal_energy_repulsive:            4.356688

@<TRIPOS>MOLECULE
125
 32 34 1 0 0
SMALL
GASTEIGER


@<TRIPOS>ATOM
      1 O          16.8908   13.9626   46.1024 O.2     1  UNL1       -0.2917
      2 C          16.4861   13.8919   44.9571 C.2     1  UNL1        0.1740
      3 C          17.3750   14.0206   43.7428 C.ar    1  UNL1        0.1007
      4 C          15.0160   13.6580   44.7006 C.3     1  UNL1        0.0520
      5 C          16.8032   13.8781   42.4680 C.ar    1  UNL1        0.1389
      6 C          18.7534   14.2649   43.8455 C.ar    1  UNL1        0.1343
      7 C          14.8627   12.7914   43.4414 C.3     1  UNL1        0.1322
      8 O          15.4713   13.5098   42.3370 O.3     1  UNL1       -0.4828
      9 C          17.5835   14.0413   41.3219 C.ar    1  UNL1        0.0225
     10 O          19.3710   14.3263   45.0573 O.3     1  UNL1       -0.5058
     11 C          19.5283   14.4179   42.6987 C.ar    1  UNL1        0.0222
     12 C          13.4114   12.4281   43.1791 C.ar    1  UNL1       -0.0067
     13 C          18.9466   14.3199   41.4384 C.ar    1  UNL1        0.1238
     14 C          12.5114   13.3249   42.5980 C.ar    1  UNL1       -0.0516
     15 C          12.9595   11.1746   43.5962 C.ar    1  UNL1       -0.0516
     16 O          19.7337   14.4680   40.3339 O.3     1  UNL1       -0.5065
     17 C          11.1705   12.9682   42.4428 C.ar    1  UNL1       -0.0198
     18 C          11.6242   10.8177   43.4414 C.ar    1  UNL1       -0.0198
     19 C          10.7274   11.7152   42.8702 C.ar    1  UNL1        0.1169
     20 O           9.4186   11.3564   42.7536 O.3     1  UNL1       -0.5068
     21 H          14.5127   14.6178   44.5596 H       1  UNL1        0.0385
     22 H          14.5629   13.1562   45.5593 H       1  UNL1        0.0385
     23 H          15.4370   11.8707   43.5843 H       1  UNL1        0.0789
     24 H          17.1282   13.9310   40.3406 H       1  UNL1        0.0691
     25 H          20.3193   14.5086   44.8812 H       1  UNL1        0.2922
     26 H          20.5959   14.6075   42.7885 H       1  UNL1        0.0691
     27 H          12.8486   14.3075   42.2764 H       1  UNL1        0.0623
     28 H          13.6471   10.4733   44.0629 H       1  UNL1        0.0623
     29 H          19.5532   13.7647   39.6895 H       1  UNL1        0.2921
     30 H          10.4748   13.6737   41.9961 H       1  UNL1        0.0654
     31 H          11.2808    9.8439   43.7803 H       1  UNL1        0.0654
     32 H           9.1620   10.7793   43.4912 H       1  UNL1        0.2921
@<TRIPOS>BOND
     1     1     2    2
     2     2     3    1
     3     2     4    1
     4     3     5   ar
     5     3     6   ar
     6     7     4    1
     7     5     8    1
     8     5     9   ar
     9     6    10    1
    10     6    11   ar
    11     9    13   ar
    12    12    14   ar
    13    12    15   ar
    14    13    16    1
    15    14    17   ar
    16    15    18   ar
    17    17    19   ar
    18    19    20    1
    19     7     8    1
    20    11    13   ar
    21    18    19   ar
    22     7    12    1
    23     4    21    1
    24     4    22    1
    25     7    23    1
    26     9    24    1
    27    10    25    1
    28    11    26    1
    29    14    27    1
    30    15    28    1
    31    16    29    1
    32    17    30    1
    33    18    31    1
    34    20    32    1
@<TRIPOS>SUBSTRUCTURE
     1 UNL1        1 TEMP              0 ****  ****    0 ROOT


##########                                Name:                 125
##########                DOCK_Rotatable_Bonds:                   4
##########                         Heavy_Atoms:                  20
##########                    Molecular_Weight:             272.257
##########                       Formal_Charge:         0.000299931
##########                     HBond_Acceptors:                   5
##########                        HBond_Donors:                   3
##########                    Descriptor_Score:           26.609716
##########          Footprint_Similarity_Score:            6.325643
##########                 desc_FPS_vdw_energy:          -28.898199
##########                  desc_FPS_es_energy:           -3.914058
##########              desc_FPS_vdw+es_energy:          -32.812256
##########                  desc_FPS_num_hbond:                   2
##########                    desc_FPS_vdw_fps:            4.724149
##########                     desc_FPS_es_fps:            1.601494
##########                     desc_FPS_hb_fps:            1.414214
##########              desc_FPS_vdw_fp_numres:                 219
##########               desc_FPS_es_fp_numres:                 219
##########               desc_FPS_hb_fp_numres:                 219
##########                 Pharmacophore_Score:           20.000000
##########              desc_FMS_num_match_tot:                   0
##########              desc_FMS_max_match_ref:                  10
##########              desc_FMS_max_match_mol:                  11
##########                 desc_FMS_match_rate:            4.000000
##########                desc_FMS_match_resid:            0.000000
##########    desc_FMS_num_hydrophobic_matched:                   0
##########          desc_FMS_num_donor_matched:                   0
##########       desc_FMS_num_acceptor_matched:                   0
##########       desc_FMS_num_aromatic_matched:                   0
##########       desc_FMS_num_positive_matched:                   0
##########       desc_FMS_num_negative_matched:                   0
##########           desc_FMS_num_ring_matched:                   0
########## Hungarian_Matching_Similarity_Score:            0.567281
##########       desc_HMS_num_unmtchd_hvy_atms:                  11
##########           desc_HMS_num_ref_hvy_atms:                  23
##########        desc_HMS_rmsd_mtchd_hvy_atms:            3.175976
##########               Property_Volume_Score:            0.283207
##########               desc_VOS_geometric_vo:            0.514517
##########                desc_VOS_hvy_atom_vo:            0.507808
##########            desc_VOS_pos_chrg_atm_vo:            0.222369
##########            desc_VOS_neg_chrg_atm_vo:            0.176370
##########         desc_VOS_hydrophobic_atm_vo:            0.246960
##########         desc_VOS_hydrophilic_atm_vo:            0.031221
##########           Internal_energy_repulsive:            4.525708

@<TRIPOS>MOLECULE
125
 32 34 1 0 0
SMALL
GASTEIGER


@<TRIPOS>ATOM
      1 O          16.4952   13.9404   46.1918 O.2     1  UNL1       -0.2917
      2 C          16.0529   13.8565   45.0613 C.2     1  UNL1        0.1740
      3 C          16.8970   13.9966   43.8168 C.ar    1  UNL1        0.1007
      4 C          14.5798   13.5930   44.8563 C.3     1  UNL1        0.0520
      5 C          16.2849   13.8371   42.5628 C.ar    1  UNL1        0.1389
      6 C          18.2732   14.2680   43.8711 C.ar    1  UNL1        0.1343
      7 C          14.4004   12.7177   43.6067 C.3     1  UNL1        0.1322
      8 O          14.9567   13.4425   42.4792 O.3     1  UNL1       -0.4828
      9 C          17.0221   14.0099   41.3900 C.ar    1  UNL1        0.0225
     10 O          18.9305   14.3471   45.0607 O.3     1  UNL1       -0.5058
     11 C          19.0052   14.4306   42.6977 C.ar    1  UNL1        0.0222
     12 C          12.9482   12.3252   43.3958 C.ar    1  UNL1       -0.0067
     13 C          18.3827   14.3154   41.4586 C.ar    1  UNL1        0.1238
     14 C          11.9424   13.2721   43.1873 C.ar    1  UNL1       -0.0516
     15 C          12.6119   10.9726   43.4793 C.ar    1  UNL1       -0.0516
     16 O          19.1285   14.4734   40.3271 O.3     1  UNL1       -0.5065
     17 C          10.6122   12.8651   43.0696 C.ar    1  UNL1       -0.0198
     18 C          11.2872   10.5657   43.3613 C.ar    1  UNL1       -0.0198
     19 C          10.2856   11.5109   43.1621 C.ar    1  UNL1        0.1169
     20 O           8.9918   11.0936   43.0774 O.3     1  UNL1       -0.5068
     21 H          14.0533   14.5423   44.7289 H       1  UNL1        0.0385
     22 H          14.1662   13.0867   45.7321 H       1  UNL1        0.0385
     23 H          14.9970   11.8090   43.7335 H       1  UNL1        0.0789
     24 H          16.5357   13.8863   40.4254 H       1  UNL1        0.0691
     25 H          19.8757   14.5075   44.8500 H       1  UNL1        0.2922
     26 H          20.0714   14.6411   42.7501 H       1  UNL1        0.0691
     27 H          12.1900   14.3295   43.1287 H       1  UNL1        0.0623
     28 H          13.3837   10.2274   43.6557 H       1  UNL1        0.0623
     29 H          18.5797   14.3476   39.5363 H       1  UNL1        0.2921
     30 H           9.8343   13.6081   42.9142 H       1  UNL1        0.0654
     31 H          11.0351    9.5115   43.4396 H       1  UNL1        0.0654
     32 H           8.3939   11.8582   43.0494 H       1  UNL1        0.2921
@<TRIPOS>BOND
     1     1     2    2
     2     2     3    1
     3     2     4    1
     4     3     5   ar
     5     3     6   ar
     6     7     4    1
     7     5     8    1
     8     5     9   ar
     9     6    10    1
    10     6    11   ar
    11     9    13   ar
    12    12    14   ar
    13    12    15   ar
    14    13    16    1
    15    14    17   ar
    16    15    18   ar
    17    17    19   ar
    18    19    20    1
    19     7     8    1
    20    11    13   ar
    21    18    19   ar
    22     7    12    1
    23     4    21    1
    24     4    22    1
    25     7    23    1
    26     9    24    1
    27    10    25    1
    28    11    26    1
    29    14    27    1
    30    15    28    1
    31    16    29    1
    32    17    30    1
    33    18    31    1
    34    20    32    1
@<TRIPOS>SUBSTRUCTURE
     1 UNL1        1 TEMP              0 ****  ****    0 ROOT


##########                                Name:                 125
##########                DOCK_Rotatable_Bonds:                   4
##########                         Heavy_Atoms:                  20
##########                    Molecular_Weight:             272.257
##########                       Formal_Charge:         0.000299931
##########                     HBond_Acceptors:                   5
##########                        HBond_Donors:                   3
##########                    Descriptor_Score:           26.573029
##########          Footprint_Similarity_Score:            6.308213
##########                 desc_FPS_vdw_energy:          -28.921860
##########                  desc_FPS_es_energy:           -3.821764
##########              desc_FPS_vdw+es_energy:          -32.743626
##########                  desc_FPS_num_hbond:                   2
##########                    desc_FPS_vdw_fps:            4.744659
##########                     desc_FPS_es_fps:            1.563554
##########                     desc_FPS_hb_fps:            1.414214
##########              desc_FPS_vdw_fp_numres:                 219
##########               desc_FPS_es_fp_numres:                 219
##########               desc_FPS_hb_fp_numres:                 219
##########                 Pharmacophore_Score:           20.000000
##########              desc_FMS_num_match_tot:                   0
##########              desc_FMS_max_match_ref:                  10
##########              desc_FMS_max_match_mol:                  11
##########                 desc_FMS_match_rate:            4.000000
##########                desc_FMS_match_resid:            0.000000
##########    desc_FMS_num_hydrophobic_matched:                   0
##########          desc_FMS_num_donor_matched:                   0
##########       desc_FMS_num_acceptor_matched:                   0
##########       desc_FMS_num_aromatic_matched:                   0
##########       desc_FMS_num_positive_matched:                   0
##########       desc_FMS_num_negative_matched:                   0
##########           desc_FMS_num_ring_matched:                   0
########## Hungarian_Matching_Similarity_Score:            0.546278
##########       desc_HMS_num_unmtchd_hvy_atms:                  11
##########           desc_HMS_num_ref_hvy_atms:                  23
##########        desc_HMS_rmsd_mtchd_hvy_atms:            3.154974
##########               Property_Volume_Score:            0.281462
##########               desc_VOS_geometric_vo:            0.513149
##########                desc_VOS_hvy_atom_vo:            0.508319
##########            desc_VOS_pos_chrg_atm_vo:            0.221810
##########            desc_VOS_neg_chrg_atm_vo:            0.173481
##########         desc_VOS_hydrophobic_atm_vo:            0.245467
##########         desc_VOS_hydrophilic_atm_vo:            0.026545
##########           Internal_energy_repulsive:            4.475872

@<TRIPOS>MOLECULE
125
 32 34 1 0 0
SMALL
GASTEIGER


@<TRIPOS>ATOM
      1 O          16.4788   13.8519   46.1581 O.2     1  UNL1       -0.2917
      2 C          16.0190   13.7961   45.0329 C.2     1  UNL1        0.1740
      3 C          16.8440   13.9658   43.7793 C.ar    1  UNL1        0.1007
      4 C          14.5426   13.5390   44.8444 C.3     1  UNL1        0.0520
      5 C          16.2124   13.8376   42.5314 C.ar    1  UNL1        0.1389
      6 C          18.2212   14.2345   43.8189 C.ar    1  UNL1        0.1343
      7 C          14.3428   12.6946   43.5766 C.3     1  UNL1        0.1322
      8 O          14.8825   13.4463   42.4587 O.3     1  UNL1       -0.4828
      9 C          16.9316   14.0384   41.3519 C.ar    1  UNL1        0.0225
     10 O          18.8969   14.2839   44.9997 O.3     1  UNL1       -0.5058
     11 C          18.9352   14.4251   42.6387 C.ar    1  UNL1        0.0222
     12 C          12.8870   12.3087   43.3787 C.ar    1  UNL1       -0.0067
     13 C          18.2935   14.3408   41.4068 C.ar    1  UNL1        0.1238
     14 C          11.8862   13.2592   43.1626 C.ar    1  UNL1       -0.0516
     15 C          12.5425   10.9596   43.4824 C.ar    1  UNL1       -0.0516
     16 O          19.0219   14.5258   40.2682 O.3     1  UNL1       -0.5065
     17 C          10.5528   12.8592   43.0573 C.ar    1  UNL1       -0.0198
     18 C          11.2146   10.5597   43.3768 C.ar    1  UNL1       -0.0198
     19 C          10.2180   11.5085   43.1700 C.ar    1  UNL1        0.1169
     20 O           8.9212   11.0985   43.0977 O.3     1  UNL1       -0.5068
     21 H          14.0154   14.4915   44.7483 H       1  UNL1        0.0385
     22 H          14.1419   13.0117   45.7138 H       1  UNL1        0.0385
     23 H          14.9401   11.7825   43.6720 H       1  UNL1        0.0789
     24 H          16.4302   13.9387   40.3922 H       1  UNL1        0.0691
     25 H          19.8372   14.4588   44.7791 H       1  UNL1        0.2922
     26 H          20.0023   14.6333   42.6797 H       1  UNL1        0.0691
     27 H          12.1402   14.3140   43.0882 H       1  UNL1        0.0623
     28 H          13.3105   10.2119   43.6649 H       1  UNL1        0.0623
     29 H          19.9524   14.7005   40.4830 H       1  UNL1        0.2921
     30 H           9.7789   13.6051   42.8960 H       1  UNL1        0.0654
     31 H          10.9562    9.5083   43.4708 H       1  UNL1        0.0654
     32 H           8.3318   11.8646   43.0046 H       1  UNL1        0.2921
@<TRIPOS>BOND
     1     1     2    2
     2     2     3    1
     3     2     4    1
     4     3     5   ar
     5     3     6   ar
     6     7     4    1
     7     5     8    1
     8     5     9   ar
     9     6    10    1
    10     6    11   ar
    11     9    13   ar
    12    12    14   ar
    13    12    15   ar
    14    13    16    1
    15    14    17   ar
    16    15    18   ar
    17    17    19   ar
    18    19    20    1
    19     7     8    1
    20    11    13   ar
    21    18    19   ar
    22     7    12    1
    23     4    21    1
    24     4    22    1
    25     7    23    1
    26     9    24    1
    27    10    25    1
    28    11    26    1
    29    14    27    1
    30    15    28    1
    31    16    29    1
    32    17    30    1
    33    18    31    1
    34    20    32    1
@<TRIPOS>SUBSTRUCTURE
     1 UNL1        1 TEMP              0 ****  ****    0 ROOT


##########                                Name:                 137
##########                DOCK_Rotatable_Bonds:                  15
##########                         Heavy_Atoms:                  32
##########                    Molecular_Weight:             457.434
##########                       Formal_Charge:          0.00030005
##########                     HBond_Acceptors:                  12
##########                        HBond_Donors:                   7
##########                    Descriptor_Score:           36.809849
##########          Footprint_Similarity_Score:            8.020973
##########                 desc_FPS_vdw_energy:          -41.862030
##########                  desc_FPS_es_energy:           -2.515196
##########              desc_FPS_vdw+es_energy:          -44.377228
##########                  desc_FPS_num_hbond:                   4
##########                    desc_FPS_vdw_fps:            5.595033
##########                     desc_FPS_es_fps:            2.425940
##########                     desc_FPS_hb_fps:            2.000000
##########              desc_FPS_vdw_fp_numres:                 219
##########               desc_FPS_es_fp_numres:                 219
##########               desc_FPS_hb_fp_numres:                 219
##########                 Pharmacophore_Score:           20.000000
##########              desc_FMS_num_match_tot:                   0
##########              desc_FMS_max_match_ref:                  10
##########              desc_FMS_max_match_mol:                  22
##########                 desc_FMS_match_rate:            4.000000
##########                desc_FMS_match_resid:            0.000000
##########    desc_FMS_num_hydrophobic_matched:                   0
##########          desc_FMS_num_donor_matched:                   0
##########       desc_FMS_num_acceptor_matched:                   0
##########       desc_FMS_num_aromatic_matched:                   0
##########       desc_FMS_num_positive_matched:                   0
##########       desc_FMS_num_negative_matched:                   0
##########           desc_FMS_num_ring_matched:                   0
########## Hungarian_Matching_Similarity_Score:            8.965527
##########       desc_HMS_num_unmtchd_hvy_atms:                  39
##########           desc_HMS_num_ref_hvy_atms:                  23
##########        desc_HMS_rmsd_mtchd_hvy_atms:            5.487266
##########               Property_Volume_Score:            0.176651
##########               desc_VOS_geometric_vo:            0.356985
##########                desc_VOS_hvy_atom_vo:            0.365320
##########            desc_VOS_pos_chrg_atm_vo:            0.126143
##########            desc_VOS_neg_chrg_atm_vo:            0.183320
##########         desc_VOS_hydrophobic_atm_vo:            0.000100
##########         desc_VOS_hydrophilic_atm_vo:            0.028039
##########           Internal_energy_repulsive:           13.027156

@<TRIPOS>MOLECULE
137
 59 61 1 0 0
SMALL
GASTEIGER


@<TRIPOS>ATOM
      1 O           7.8689   12.1363   42.4584 O.3     1  UNL1       -0.3405
      2 C           6.4728   12.3217   42.1120 C.3     1  UNL1        0.1899
      3 C           8.6720   13.3288   42.6954 C.3     1  UNL1        0.1134
      4 O           5.7718   12.9377   43.2381 O.3     1  UNL1       -0.3262
      5 C           6.4361   13.1701   40.8099 C.3     1  UNL1        0.1342
      6 C           8.5803   14.2774   41.4640 C.3     1  UNL1        0.1119
      7 C          10.1133   12.8213   42.9219 C.3     1  UNL1        0.0796
      8 C           4.6948   12.1795   43.8568 C.3     1  UNL1        0.1722
      9 O           5.1229   13.3454   40.2691 O.3     1  UNL1       -0.3841
     10 C           7.1172   14.5320   41.0410 C.3     1  UNL1        0.1141
     11 O           9.1564   15.5471   41.7489 O.3     1  UNL1       -0.3865
     12 O          10.9943   13.9056   43.3011 O.3     1  UNL1       -0.3460
     13 C           5.1490   10.7478   44.0897 C.1     1  UNL1        0.0992
     14 C           4.2543   12.8036   45.1726 C.ar    1  UNL1       -0.0049
     15 O           6.4207   15.3188   42.0333 O.3     1  UNL1       -0.3864
     16 C          12.2323   13.9309   42.5518 C.3     1  UNL1        0.1880
     17 N           5.5260    9.5601   44.2828 N.1     1  UNL1       -0.1935
     18 C           4.6429   14.1138   45.4605 C.ar    1  UNL1       -0.0551
     19 C           3.4336   12.1196   46.0735 C.ar    1  UNL1       -0.0551
     20 O          12.9887   12.7079   42.7692 O.3     1  UNL1       -0.3405
     21 C          13.0852   15.1595   42.9579 C.3     1  UNL1        0.1341
     22 C           4.2193   14.7359   46.6321 C.ar    1  UNL1       -0.0614
     23 C           3.0121   12.7416   47.2489 C.ar    1  UNL1       -0.0614
     24 C          13.4604   12.4895   44.1281 C.3     1  UNL1        0.1130
     25 O          12.3182   16.3668   42.8575 O.3     1  UNL1       -0.3841
     26 C          13.6487   14.9901   44.3881 C.3     1  UNL1        0.1141
     27 C           3.4032   14.0504   47.5267 C.ar    1  UNL1       -0.0617
     28 C          14.4077   13.6489   44.5080 C.3     1  UNL1        0.1119
     29 C          14.1785   11.1243   44.2056 C.3     1  UNL1        0.0730
     30 O          14.5510   16.0553   44.6886 O.3     1  UNL1       -0.3864
     31 O          15.5433   13.6445   43.6288 O.3     1  UNL1       -0.3865
     32 O          13.2172   10.0717   44.2592 O.3     1  UNL1       -0.3924
     33 H           6.0545   11.3186   41.9361 H       1  UNL1        0.0938
     34 H           8.3039   13.8311   43.5948 H       1  UNL1        0.0647
     35 H           7.0161   12.6271   40.0577 H       1  UNL1        0.0671
     36 H           9.1187   13.8237   40.6269 H       1  UNL1        0.0647
     37 H          10.4775   12.3740   41.9921 H       1  UNL1        0.0587
     38 H          10.1280   12.0623   43.7089 H       1  UNL1        0.0587
     39 H           3.8313   12.1638   43.1948 H       1  UNL1        0.0808
     40 H           5.1858   13.9041   39.4695 H       1  UNL1        0.2101
     41 H           7.1210   15.0859   40.0979 H       1  UNL1        0.0648
     42 H          10.0961   15.3644   41.9186 H       1  UNL1        0.2100
     43 H           5.4505   15.3130   41.8353 H       1  UNL1        0.2100
     44 H          11.9852   13.9946   41.4808 H       1  UNL1        0.0937
     45 H           5.2696   14.6644   44.7616 H       1  UNL1        0.0621
     46 H           3.1113   11.1037   45.8588 H       1  UNL1        0.0621
     47 H          13.9192   15.2333   42.2546 H       1  UNL1        0.0671
     48 H           4.5193   15.7603   46.8426 H       1  UNL1        0.0618
     49 H           2.3702   12.2083   47.9452 H       1  UNL1        0.0618
     50 H          12.6017   12.4842   44.8066 H       1  UNL1        0.0647
     51 H          11.4157   16.2053   43.1932 H       1  UNL1        0.2101
     52 H          12.8228   15.0037   45.1053 H       1  UNL1        0.0648
     53 H           3.0662   14.5379   48.4389 H       1  UNL1        0.0618
     54 H          14.7493   13.5225   45.5394 H       1  UNL1        0.0647
     55 H          14.8022   11.0890   45.1032 H       1  UNL1        0.0584
     56 H          14.8175   10.9825   43.3297 H       1  UNL1        0.0584
     57 H          15.4488   15.6830   44.6109 H       1  UNL1        0.2100
     58 H          16.3088   13.3123   44.1410 H       1  UNL1        0.2100
     59 H          12.6335   10.2412   45.0174 H       1  UNL1        0.2095
@<TRIPOS>BOND
     1     1     2    1
     2     1     3    1
     3     2     4    1
     4     2     5    1
     5     3     6    1
     6     3     7    1
     7     4     8    1
     8     5     9    1
     9     5    10    1
    10     6    11    1
    11     7    12    1
    12     8    13    1
    13     8    14    1
    14    10    15    1
    15    12    16    1
    16    13    17    3
    17    14    18   ar
    18    14    19   ar
    19    16    20    1
    20    16    21    1
    21    18    22   ar
    22    19    23   ar
    23    20    24    1
    24    21    25    1
    25    21    26    1
    26    22    27   ar
    27    24    28    1
    28    24    29    1
    29    26    30    1
    30    28    31    1
    31    29    32    1
    32     6    10    1
    33    23    27   ar
    34    26    28    1
    35     2    33    1
    36     3    34    1
    37     5    35    1
    38     6    36    1
    39     7    37    1
    40     7    38    1
    41     8    39    1
    42     9    40    1
    43    10    41    1
    44    11    42    1
    45    15    43    1
    46    16    44    1
    47    18    45    1
    48    19    46    1
    49    21    47    1
    50    22    48    1
    51    23    49    1
    52    24    50    1
    53    25    51    1
    54    26    52    1
    55    27    53    1
    56    28    54    1
    57    29    55    1
    58    29    56    1
    59    30    57    1
    60    31    58    1
    61    32    59    1
@<TRIPOS>SUBSTRUCTURE
     1 UNL1        1 TEMP              0 ****  ****    0 ROOT


##########                                Name:                 137
##########                DOCK_Rotatable_Bonds:                  15
##########                         Heavy_Atoms:                  32
##########                    Molecular_Weight:             457.434
##########                       Formal_Charge:          0.00030005
##########                     HBond_Acceptors:                  12
##########                        HBond_Donors:                   7
##########                    Descriptor_Score:           37.794685
##########          Footprint_Similarity_Score:            8.766706
##########                 desc_FPS_vdw_energy:          -40.489971
##########                  desc_FPS_es_energy:           -1.800748
##########              desc_FPS_vdw+es_energy:          -42.290718
##########                  desc_FPS_num_hbond:                   2
##########                    desc_FPS_vdw_fps:            6.657851
##########                     desc_FPS_es_fps:            2.108855
##########                     desc_FPS_hb_fps:            1.414214
##########              desc_FPS_vdw_fp_numres:                 219
##########               desc_FPS_es_fp_numres:                 219
##########               desc_FPS_hb_fp_numres:                 219
##########                 Pharmacophore_Score:           20.000000
##########              desc_FMS_num_match_tot:                   0
##########              desc_FMS_max_match_ref:                  10
##########              desc_FMS_max_match_mol:                  22
##########                 desc_FMS_match_rate:            4.000000
##########                desc_FMS_match_resid:            0.000000
##########    desc_FMS_num_hydrophobic_matched:                   0
##########          desc_FMS_num_donor_matched:                   0
##########       desc_FMS_num_acceptor_matched:                   0
##########       desc_FMS_num_aromatic_matched:                   0
##########       desc_FMS_num_positive_matched:                   0
##########       desc_FMS_num_negative_matched:                   0
##########           desc_FMS_num_ring_matched:                   0
########## Hungarian_Matching_Similarity_Score:            9.248535
##########       desc_HMS_num_unmtchd_hvy_atms:                  39
##########           desc_HMS_num_ref_hvy_atms:                  23
##########        desc_HMS_rmsd_mtchd_hvy_atms:            5.770275
##########               Property_Volume_Score:            0.220558
##########               desc_VOS_geometric_vo:            0.471565
##########                desc_VOS_hvy_atom_vo:            0.469065
##########            desc_VOS_pos_chrg_atm_vo:            0.143561
##########            desc_VOS_neg_chrg_atm_vo:            0.204966
##########         desc_VOS_hydrophobic_atm_vo:            0.000000
##########         desc_VOS_hydrophilic_atm_vo:            0.034192
##########           Internal_energy_repulsive:           11.682609

@<TRIPOS>MOLECULE
137
 59 61 1 0 0
SMALL
GASTEIGER


@<TRIPOS>ATOM
      1 O           8.9346   12.6232   43.6712 O.3     1  UNL1       -0.3405
      2 C           7.7237   12.2146   42.9855 C.3     1  UNL1        0.1899
      3 C           9.1432   14.0493   43.8854 C.3     1  UNL1        0.1134
      4 O           6.5622   12.5696   43.8001 O.3     1  UNL1       -0.3262
      5 C           7.7414   12.8942   41.5875 C.3     1  UNL1        0.1342
      6 C           9.0555   14.8033   42.5257 C.3     1  UNL1        0.1119
      7 C          10.5458   14.1737   44.5204 C.3     1  UNL1        0.0796
      8 C           5.3243   11.8430   43.5605 C.3     1  UNL1        0.1722
      9 O           6.6619   12.4972   40.7362 O.3     1  UNL1       -0.3841
     10 C           7.7811   14.4263   41.7395 C.3     1  UNL1        0.1141
     11 O           9.0209   16.2125   42.7203 O.3     1  UNL1       -0.3865
     12 O          11.5093   13.3494   43.8218 O.3     1  UNL1       -0.3460
     13 C           5.5222   10.3749   43.9009 C.1     1  UNL1        0.0992
     14 C           4.1732   12.4131   44.3757 C.ar    1  UNL1       -0.0049
     15 O           6.5979   14.9311   42.3984 O.3     1  UNL1       -0.3864
     16 C          12.7186   13.1088   44.5797 C.3     1  UNL1        0.1880
     17 N           5.6864    9.1570   44.1834 N.1     1  UNL1       -0.1935
     18 C           3.9782   11.9532   45.6799 C.ar    1  UNL1       -0.0551
     19 C           3.3406   13.4163   43.8722 C.ar    1  UNL1       -0.0551
     20 O          13.4308   14.3542   44.8186 O.3     1  UNL1       -0.3405
     21 C          13.6366   12.1098   43.8307 C.3     1  UNL1        0.1341
     22 C           2.9657   12.4858   46.4738 C.ar    1  UNL1       -0.0614
     23 C           2.3239   13.9474   44.6663 C.ar    1  UNL1       -0.0614
     24 C          13.9432   15.0264   43.6344 C.3     1  UNL1        0.1130
     25 O          12.9175   10.9181   43.4864 O.3     1  UNL1       -0.3841
     26 C          14.2453   12.7622   42.5675 C.3     1  UNL1        0.1141
     27 C           2.1384   13.4836   45.9677 C.ar    1  UNL1       -0.0617
     28 C          14.9516   14.0864   42.9376 C.3     1  UNL1        0.1119
     29 C          14.6061   16.3580   44.0504 C.3     1  UNL1        0.0730
     30 O          15.2019   11.8832   41.9746 O.3     1  UNL1       -0.3864
     31 O          16.0525   13.8276   43.8227 O.3     1  UNL1       -0.3865
     32 O          13.6426   17.4097   44.0241 O.3     1  UNL1       -0.3924
     33 H           7.7701   11.1190   42.8873 H       1  UNL1        0.0938
     34 H           8.3818   14.4188   44.5786 H       1  UNL1        0.0647
     35 H           8.6648   12.5813   41.0911 H       1  UNL1        0.0671
     36 H           9.9328   14.5500   41.9235 H       1  UNL1        0.0647
     37 H          10.4883   13.8490   45.5637 H       1  UNL1        0.0587
     38 H          10.8835   15.2133   44.4917 H       1  UNL1        0.0587
     39 H           5.0528   11.9195   42.5095 H       1  UNL1        0.0808
     40 H           6.6643   13.0664   39.9417 H       1  UNL1        0.2101
     41 H           7.8431   14.8752   40.7440 H       1  UNL1        0.0648
     42 H           8.2470   16.3690   43.2875 H       1  UNL1        0.2100
     43 H           6.7333   15.8837   42.6323 H       1  UNL1        0.2100
     44 H          12.4347   12.6845   45.5553 H       1  UNL1        0.0937
     45 H           4.6280   11.1831   46.0909 H       1  UNL1        0.0621
     46 H           3.4866   13.7949   42.8635 H       1  UNL1        0.0621
     47 H          14.4462   11.8279   44.5094 H       1  UNL1        0.0671
     48 H           2.8283   12.1278   47.4919 H       1  UNL1        0.0618
     49 H           1.6811   14.7306   44.2731 H       1  UNL1        0.0618
     50 H          13.1109   15.2348   42.9551 H       1  UNL1        0.0647
     51 H          13.0029   10.2684   44.2101 H       1  UNL1        0.2101
     52 H          13.4479   12.9666   41.8470 H       1  UNL1        0.0648
     53 H           1.3516   13.9050   46.5894 H       1  UNL1        0.0618
     54 H          15.3257   14.5591   42.0249 H       1  UNL1        0.0647
     55 H          15.4177   16.5954   43.3570 H       1  UNL1        0.0584
     56 H          15.0203   16.2757   45.0589 H       1  UNL1        0.0584
     57 H          15.7943   11.5983   42.6947 H       1  UNL1        0.2100
     58 H          16.5361   13.0529   43.4696 H       1  UNL1        0.2100
     59 H          12.9056   17.1515   44.6023 H       1  UNL1        0.2095
@<TRIPOS>BOND
     1     1     2    1
     2     1     3    1
     3     2     4    1
     4     2     5    1
     5     3     6    1
     6     3     7    1
     7     4     8    1
     8     5     9    1
     9     5    10    1
    10     6    11    1
    11     7    12    1
    12     8    13    1
    13     8    14    1
    14    10    15    1
    15    12    16    1
    16    13    17    3
    17    14    18   ar
    18    14    19   ar
    19    16    20    1
    20    16    21    1
    21    18    22   ar
    22    19    23   ar
    23    20    24    1
    24    21    25    1
    25    21    26    1
    26    22    27   ar
    27    24    28    1
    28    24    29    1
    29    26    30    1
    30    28    31    1
    31    29    32    1
    32     6    10    1
    33    23    27   ar
    34    26    28    1
    35     2    33    1
    36     3    34    1
    37     5    35    1
    38     6    36    1
    39     7    37    1
    40     7    38    1
    41     8    39    1
    42     9    40    1
    43    10    41    1
    44    11    42    1
    45    15    43    1
    46    16    44    1
    47    18    45    1
    48    19    46    1
    49    21    47    1
    50    22    48    1
    51    23    49    1
    52    24    50    1
    53    25    51    1
    54    26    52    1
    55    27    53    1
    56    28    54    1
    57    29    55    1
    58    29    56    1
    59    30    57    1
    60    31    58    1
    61    32    59    1
@<TRIPOS>SUBSTRUCTURE
     1 UNL1        1 TEMP              0 ****  ****    0 ROOT


##########                                Name:                 137
##########                DOCK_Rotatable_Bonds:                  15
##########                         Heavy_Atoms:                  32
##########                    Molecular_Weight:             457.434
##########                       Formal_Charge:          0.00030005
##########                     HBond_Acceptors:                  12
##########                        HBond_Donors:                   7
##########                    Descriptor_Score:           37.845512
##########          Footprint_Similarity_Score:            8.847002
##########                 desc_FPS_vdw_energy:          -40.375305
##########                  desc_FPS_es_energy:           -1.966227
##########              desc_FPS_vdw+es_energy:          -42.341534
##########                  desc_FPS_num_hbond:                   2
##########                    desc_FPS_vdw_fps:            6.813302
##########                     desc_FPS_es_fps:            2.033700
##########                     desc_FPS_hb_fps:            1.414214
##########              desc_FPS_vdw_fp_numres:                 219
##########               desc_FPS_es_fp_numres:                 219
##########               desc_FPS_hb_fp_numres:                 219
##########                 Pharmacophore_Score:           20.000000
##########              desc_FMS_num_match_tot:                   0
##########              desc_FMS_max_match_ref:                  10
##########              desc_FMS_max_match_mol:                  22
##########                 desc_FMS_match_rate:            4.000000
##########                desc_FMS_match_resid:            0.000000
##########    desc_FMS_num_hydrophobic_matched:                   0
##########          desc_FMS_num_donor_matched:                   0
##########       desc_FMS_num_acceptor_matched:                   0
##########       desc_FMS_num_aromatic_matched:                   0
##########       desc_FMS_num_positive_matched:                   0
##########       desc_FMS_num_negative_matched:                   0
##########           desc_FMS_num_ring_matched:                   0
########## Hungarian_Matching_Similarity_Score:            9.223544
##########       desc_HMS_num_unmtchd_hvy_atms:                  39
##########           desc_HMS_num_ref_hvy_atms:                  23
##########        desc_HMS_rmsd_mtchd_hvy_atms:            5.745283
##########               Property_Volume_Score:            0.225031
##########               desc_VOS_geometric_vo:            0.483293
##########                desc_VOS_hvy_atom_vo:            0.483948
##########            desc_VOS_pos_chrg_atm_vo:            0.139957
##########            desc_VOS_neg_chrg_atm_vo:            0.211179
##########         desc_VOS_hydrophobic_atm_vo:            0.000000
##########         desc_VOS_hydrophilic_atm_vo:            0.031812
##########           Internal_energy_repulsive:           11.884210

@<TRIPOS>MOLECULE
137
 59 61 1 0 0
SMALL
GASTEIGER


@<TRIPOS>ATOM
      1 O           9.0249   12.6769   43.7951 O.3     1  UNL1       -0.3405
      2 C           7.7883   12.3129   43.1303 C.3     1  UNL1        0.1899
      3 C           9.2549   14.0890   44.0714 C.3     1  UNL1        0.1134
      4 O           6.6574   12.6376   43.9989 O.3     1  UNL1       -0.3262
      5 C           7.7677   13.0600   41.7672 C.3     1  UNL1        0.1342
      6 C           9.1310   14.9094   42.7537 C.3     1  UNL1        0.1119
      7 C          10.6785   14.1700   44.6653 C.3     1  UNL1        0.0796
      8 C           5.3825   11.9973   43.7121 C.3     1  UNL1        0.1722
      9 O           6.6572   12.7145   40.9335 O.3     1  UNL1       -0.3841
     10 C           7.8280   14.5824   41.9923 C.3     1  UNL1        0.1141
     11 O           9.1172   16.3076   43.0177 O.3     1  UNL1       -0.3865
     12 O          11.6014   13.3376   43.9227 O.3     1  UNL1       -0.3460
     13 C           5.5194   10.4929   43.8815 C.1     1  UNL1        0.0992
     14 C           4.2764   12.5217   44.6155 C.ar    1  UNL1       -0.0049
     15 O           6.6720   15.0645   42.7135 O.3     1  UNL1       -0.3864
     16 C          12.8334   13.0681   44.6328 C.3     1  UNL1        0.1880
     17 N           5.6330    9.2450   44.0220 N.1     1  UNL1       -0.1935
     18 C           3.4729   13.5689   44.1589 C.ar    1  UNL1       -0.0551
     19 C           4.0137   11.9519   45.8643 C.ar    1  UNL1       -0.0551
     20 O          13.5662   14.3008   44.8751 O.3     1  UNL1       -0.3405
     21 C          13.7149   12.0780   43.8300 C.3     1  UNL1        0.1341
     22 C           2.4200   14.0434   44.9368 C.ar    1  UNL1       -0.0614
     23 C           2.9609   12.4297   46.6451 C.ar    1  UNL1       -0.0614
     24 C          14.0445   14.9953   43.6895 C.3     1  UNL1        0.1130
     25 O          12.9721   10.9014   43.4837 O.3     1  UNL1       -0.3841
     26 C          14.2865   12.7536   42.5616 C.3     1  UNL1        0.1141
     27 C           2.1630   13.4738   46.1800 C.ar    1  UNL1       -0.0617
     28 C          15.0186   14.0621   42.9371 C.3     1  UNL1        0.1119
     29 C          14.7348   16.3105   44.1124 C.3     1  UNL1        0.0730
     30 O          15.2130   11.8794   41.9162 O.3     1  UNL1       -0.3864
     31 O          16.1466   13.7725   43.7775 O.3     1  UNL1       -0.3865
     32 O          13.7833   17.3732   44.1364 O.3     1  UNL1       -0.3924
     33 H           7.8203   11.2230   42.9775 H       1  UNL1        0.0938
     34 H           8.5202   14.4306   44.8064 H       1  UNL1        0.0647
     35 H           8.6713   12.7638   41.2262 H       1  UNL1        0.0671
     36 H           9.9857   14.6783   42.1114 H       1  UNL1        0.0647
     37 H          10.6451   13.8271   45.7039 H       1  UNL1        0.0587
     38 H          11.0390   15.2021   44.6451 H       1  UNL1        0.0587
     39 H           5.0929   12.2034   42.6837 H       1  UNL1        0.0808
     40 H           6.6148   13.3480   40.1904 H       1  UNL1        0.2101
     41 H           7.8624   15.0790   41.0184 H       1  UNL1        0.0648
     42 H           8.3682   16.4417   43.6230 H       1  UNL1        0.2100
     43 H           6.8139   16.0113   42.9665 H       1  UNL1        0.2100
     44 H          12.5788   12.6241   45.6076 H       1  UNL1        0.0937
     45 H           3.6560   14.0127   43.1823 H       1  UNL1        0.0621
     46 H           4.6212   11.1275   46.2294 H       1  UNL1        0.0621
     47 H          14.5443   11.7729   44.4737 H       1  UNL1        0.0671
     48 H           1.7937   14.8530   44.5680 H       1  UNL1        0.0618
     49 H           2.7566   11.9813   47.6138 H       1  UNL1        0.0618
     50 H          13.1915   15.2272   43.0442 H       1  UNL1        0.0647
     51 H          13.0644   10.2396   44.1956 H       1  UNL1        0.2101
     52 H          13.4670   12.9820   41.8740 H       1  UNL1        0.0648
     53 H           1.3364   13.8393   46.7854 H       1  UNL1        0.0618
     54 H          15.3660   14.5522   42.0230 H       1  UNL1        0.0647
     55 H          15.5283   16.5532   43.4001 H       1  UNL1        0.0584
     56 H          15.1778   16.2029   45.1063 H       1  UNL1        0.0584
     57 H          15.8769   11.6400   42.5890 H       1  UNL1        0.2100
     58 H          16.6213   13.0143   43.3794 H       1  UNL1        0.2100
     59 H          13.0661   17.1158   44.7393 H       1  UNL1        0.2095
@<TRIPOS>BOND
     1     1     2    1
     2     1     3    1
     3     2     4    1
     4     2     5    1
     5     3     6    1
     6     3     7    1
     7     4     8    1
     8     5     9    1
     9     5    10    1
    10     6    11    1
    11     7    12    1
    12     8    13    1
    13     8    14    1
    14    10    15    1
    15    12    16    1
    16    13    17    3
    17    14    18   ar
    18    14    19   ar
    19    16    20    1
    20    16    21    1
    21    18    22   ar
    22    19    23   ar
    23    20    24    1
    24    21    25    1
    25    21    26    1
    26    22    27   ar
    27    24    28    1
    28    24    29    1
    29    26    30    1
    30    28    31    1
    31    29    32    1
    32     6    10    1
    33    23    27   ar
    34    26    28    1
    35     2    33    1
    36     3    34    1
    37     5    35    1
    38     6    36    1
    39     7    37    1
    40     7    38    1
    41     8    39    1
    42     9    40    1
    43    10    41    1
    44    11    42    1
    45    15    43    1
    46    16    44    1
    47    18    45    1
    48    19    46    1
    49    21    47    1
    50    22    48    1
    51    23    49    1
    52    24    50    1
    53    25    51    1
    54    26    52    1
    55    27    53    1
    56    28    54    1
    57    29    55    1
    58    29    56    1
    59    30    57    1
    60    31    58    1
    61    32    59    1
@<TRIPOS>SUBSTRUCTURE
     1 UNL1        1 TEMP              0 ****  ****    0 ROOT


##########                                Name:                 138
##########                DOCK_Rotatable_Bonds:                   1
##########                         Heavy_Atoms:                  11
##########                    Molecular_Weight:             151.252
##########                       Formal_Charge:         0.000499945
##########                     HBond_Acceptors:                   1
##########                        HBond_Donors:                   2
##########                    Descriptor_Score:           27.967402
##########          Footprint_Similarity_Score:            5.719747
##########                 desc_FPS_vdw_energy:          -17.594238
##########                  desc_FPS_es_energy:           -0.523632
##########              desc_FPS_vdw+es_energy:          -18.117870
##########                  desc_FPS_num_hbond:                   1
##########                    desc_FPS_vdw_fps:            4.218028
##########                     desc_FPS_es_fps:            1.501718
##########                     desc_FPS_hb_fps:            1.000000
##########              desc_FPS_vdw_fp_numres:                 219
##########               desc_FPS_es_fp_numres:                 219
##########               desc_FPS_hb_fp_numres:                 219
##########                 Pharmacophore_Score:           20.000000
##########              desc_FMS_num_match_tot:                   0
##########              desc_FMS_max_match_ref:                  10
##########              desc_FMS_max_match_mol:                   6
##########                 desc_FMS_match_rate:            4.000000
##########                desc_FMS_match_resid:            0.000000
##########    desc_FMS_num_hydrophobic_matched:                   0
##########          desc_FMS_num_donor_matched:                   0
##########       desc_FMS_num_acceptor_matched:                   0
##########       desc_FMS_num_aromatic_matched:                   0
##########       desc_FMS_num_positive_matched:                   0
##########       desc_FMS_num_negative_matched:                   0
##########           desc_FMS_num_ring_matched:                   0
########## Hungarian_Matching_Similarity_Score:            2.594780
##########       desc_HMS_num_unmtchd_hvy_atms:                  32
##########           desc_HMS_num_ref_hvy_atms:                  23
##########        desc_HMS_rmsd_mtchd_hvy_atms:            0.638258
##########               Property_Volume_Score:            0.347123
##########               desc_VOS_geometric_vo:            0.509829
##########                desc_VOS_hvy_atom_vo:            0.403932
##########            desc_VOS_pos_chrg_atm_vo:            0.443479
##########            desc_VOS_neg_chrg_atm_vo:            0.366524
##########         desc_VOS_hydrophobic_atm_vo:            0.358976
##########         desc_VOS_hydrophilic_atm_vo:            0.000000
##########           Internal_energy_repulsive:            2.575336

@<TRIPOS>MOLECULE
138
 28 30 1 0 0
SMALL
GASTEIGER


@<TRIPOS>ATOM
      1 N          11.2206   11.7336   43.3413 N.3     1  UNL1       -0.3246
      2 C          12.4579   12.5034   43.5567 C.3     1  UNL1        0.0172
      3 C          13.5567   11.5786   44.1472 C.3     1  UNL1       -0.0320
      4 C          12.1851   13.6681   44.5469 C.3     1  UNL1       -0.0320
      5 C          12.9545   13.0871   42.2062 C.3     1  UNL1       -0.0320
      6 C          14.8590   12.3884   44.3743 C.3     1  UNL1       -0.0389
      7 C          13.4861   14.4801   44.7742 C.3     1  UNL1       -0.0389
      8 C          14.2561   13.8987   42.4314 C.3     1  UNL1       -0.0389
      9 C          14.5775   13.5495   45.3622 C.3     1  UNL1       -0.0472
     10 C          15.3467   12.9689   43.0222 C.3     1  UNL1       -0.0472
     11 C          13.9747   15.0578   43.4213 C.3     1  UNL1       -0.0472
     12 H          10.4400   12.3669   43.1805 H       1  UNL1        0.1187
     13 H          11.0006   11.1881   44.1721 H       1  UNL1        0.1187
     14 H          13.7540   10.7454   43.4673 H       1  UNL1        0.0286
     15 H          13.2194   11.1488   45.0943 H       1  UNL1        0.0286
     16 H          11.8234   13.2754   45.5010 H       1  UNL1        0.0286
     17 H          11.4044   14.3237   44.1519 H       1  UNL1        0.0286
     18 H          12.1875   13.7325   41.7695 H       1  UNL1        0.0286
     19 H          13.1413   12.2804   41.4923 H       1  UNL1        0.0286
     20 H          15.6286   11.7336   44.7897 H       1  UNL1        0.0302
     21 H          13.2887   15.2981   45.4712 H       1  UNL1        0.0302
     22 H          14.6011   14.3074   41.4785 H       1  UNL1        0.0302
     23 H          15.4941   14.1165   45.5440 H       1  UNL1        0.0271
     24 H          14.2490   13.1499   46.3250 H       1  UNL1        0.0271
     25 H          15.5644   12.1570   42.3235 H       1  UNL1        0.0271
     26 H          16.2753   13.5270   43.1678 H       1  UNL1        0.0271
     27 H          14.8815   15.6492   43.5727 H       1  UNL1        0.0271
     28 H          13.2178   15.7284   43.0062 H       1  UNL1        0.0271
@<TRIPOS>BOND
     1     1     2    1
     2     2     3    1
     3     2     4    1
     4     2     5    1
     5     3     6    1
     6     4     7    1
     7     5     8    1
     8     6     9    1
     9     6    10    1
    10     7    11    1
    11     7     9    1
    12     8    10    1
    13     8    11    1
    14     1    12    1
    15     1    13    1
    16     3    14    1
    17     3    15    1
    18     4    16    1
    19     4    17    1
    20     5    18    1
    21     5    19    1
    22     6    20    1
    23     7    21    1
    24     8    22    1
    25     9    23    1
    26     9    24    1
    27    10    25    1
    28    10    26    1
    29    11    27    1
    30    11    28    1
@<TRIPOS>SUBSTRUCTURE
     1 UNL1        1 TEMP              0 ****  ****    0 ROOT


##########                                Name:                 138
##########                DOCK_Rotatable_Bonds:                   1
##########                         Heavy_Atoms:                  11
##########                    Molecular_Weight:             151.252
##########                       Formal_Charge:         0.000499945
##########                     HBond_Acceptors:                   1
##########                        HBond_Donors:                   2
##########                    Descriptor_Score:           28.279251
##########          Footprint_Similarity_Score:            6.035623
##########                 desc_FPS_vdw_energy:          -17.420176
##########                  desc_FPS_es_energy:           -0.501695
##########              desc_FPS_vdw+es_energy:          -17.921871
##########                  desc_FPS_num_hbond:                   1
##########                    desc_FPS_vdw_fps:            4.493844
##########                     desc_FPS_es_fps:            1.541779
##########                     desc_FPS_hb_fps:            1.000000
##########              desc_FPS_vdw_fp_numres:                 219
##########               desc_FPS_es_fp_numres:                 219
##########               desc_FPS_hb_fp_numres:                 219
##########                 Pharmacophore_Score:           20.000000
##########              desc_FMS_num_match_tot:                   0
##########              desc_FMS_max_match_ref:                  10
##########              desc_FMS_max_match_mol:                   6
##########                 desc_FMS_match_rate:            4.000000
##########                desc_FMS_match_resid:            0.000000
##########    desc_FMS_num_hydrophobic_matched:                   0
##########          desc_FMS_num_donor_matched:                   0
##########       desc_FMS_num_acceptor_matched:                   0
##########       desc_FMS_num_aromatic_matched:                   0
##########       desc_FMS_num_positive_matched:                   0
##########       desc_FMS_num_negative_matched:                   0
##########           desc_FMS_num_ring_matched:                   0
########## Hungarian_Matching_Similarity_Score:            2.591648
##########       desc_HMS_num_unmtchd_hvy_atms:                  32
##########           desc_HMS_num_ref_hvy_atms:                  23
##########        desc_HMS_rmsd_mtchd_hvy_atms:            0.635126
##########               Property_Volume_Score:            0.348020
##########               desc_VOS_geometric_vo:            0.514673
##########                desc_VOS_hvy_atom_vo:            0.416646
##########            desc_VOS_pos_chrg_atm_vo:            0.407765
##########            desc_VOS_neg_chrg_atm_vo:            0.379578
##########         desc_VOS_hydrophobic_atm_vo:            0.369460
##########         desc_VOS_hydrophilic_atm_vo:            0.000000
##########           Internal_energy_repulsive:            2.575268

@<TRIPOS>MOLECULE
138
 28 30 1 0 0
SMALL
GASTEIGER


@<TRIPOS>ATOM
      1 N          11.6987   11.5122   43.2625 N.3     1  UNL1       -0.3246
      2 C          12.8101   12.4471   43.5087 C.3     1  UNL1        0.0172
      3 C          14.0000   11.6901   44.1586 C.3     1  UNL1       -0.0320
      4 C          12.3420   13.5781   44.4642 C.3     1  UNL1       -0.0320
      5 C          13.2763   13.0731   42.1663 C.3     1  UNL1       -0.0320
      6 C          15.1699   12.6737   44.4182 C.3     1  UNL1       -0.0389
      7 C          13.5102   14.5637   44.7239 C.3     1  UNL1       -0.0389
      8 C          14.4453   14.0583   42.4239 C.3     1  UNL1       -0.0389
      9 C          14.6937   13.7998   45.3712 C.3     1  UNL1       -0.0472
     10 C          15.6277   13.2953   43.0739 C.3     1  UNL1       -0.0472
     11 C          13.9694   15.1826   43.3790 C.3     1  UNL1       -0.0472
     12 H          11.3370   11.1606   44.1467 H       1  UNL1        0.1187
     13 H          12.0298   10.7096   42.7311 H       1  UNL1        0.1187
     14 H          14.3359   10.8817   43.5036 H       1  UNL1        0.0286
     15 H          13.6867   11.2323   45.1008 H       1  UNL1        0.0286
     16 H          11.9992   13.1538   45.4118 H       1  UNL1        0.0286
     17 H          11.4957   14.1148   44.0270 H       1  UNL1        0.0286
     18 H          12.4467   13.6010   41.6881 H       1  UNL1        0.0286
     19 H          13.5996   12.2890   41.4764 H       1  UNL1        0.0286
     20 H          16.0042   12.1365   44.8754 H       1  UNL1        0.0302
     21 H          13.1756   15.3572   45.3964 H       1  UNL1        0.0302
     22 H          14.7693   14.4962   41.4766 H       1  UNL1        0.0302
     23 H          15.5166   14.4896   45.5759 H       1  UNL1        0.0271
     24 H          14.3843   13.3734   46.3288 H       1  UNL1        0.0271
     25 H          15.9817   12.5105   42.4005 H       1  UNL1        0.0271
     26 H          16.4652   13.9772   43.2431 H       1  UNL1        0.0271
     27 H          14.7805   15.8946   43.5524 H       1  UNL1        0.0271
     28 H          13.1455   15.7371   42.9222 H       1  UNL1        0.0271
@<TRIPOS>BOND
     1     1     2    1
     2     2     3    1
     3     2     4    1
     4     2     5    1
     5     3     6    1
     6     4     7    1
     7     5     8    1
     8     6     9    1
     9     6    10    1
    10     7    11    1
    11     7     9    1
    12     8    10    1
    13     8    11    1
    14     1    12    1
    15     1    13    1
    16     3    14    1
    17     3    15    1
    18     4    16    1
    19     4    17    1
    20     5    18    1
    21     5    19    1
    22     6    20    1
    23     7    21    1
    24     8    22    1
    25     9    23    1
    26     9    24    1
    27    10    25    1
    28    10    26    1
    29    11    27    1
    30    11    28    1
@<TRIPOS>SUBSTRUCTURE
     1 UNL1        1 TEMP              0 ****  ****    0 ROOT


##########                                Name:                 138
##########                DOCK_Rotatable_Bonds:                   1
##########                         Heavy_Atoms:                  11
##########                    Molecular_Weight:             151.252
##########                       Formal_Charge:         0.000499945
##########                     HBond_Acceptors:                   1
##########                        HBond_Donors:                   2
##########                    Descriptor_Score:           28.596321
##########          Footprint_Similarity_Score:            6.173848
##########                 desc_FPS_vdw_energy:          -16.960419
##########                  desc_FPS_es_energy:           -0.253495
##########              desc_FPS_vdw+es_energy:          -17.213913
##########                  desc_FPS_num_hbond:                   1
##########                    desc_FPS_vdw_fps:            4.482064
##########                     desc_FPS_es_fps:            1.691784
##########                     desc_FPS_hb_fps:            1.000000
##########              desc_FPS_vdw_fp_numres:                 219
##########               desc_FPS_es_fp_numres:                 219
##########               desc_FPS_hb_fp_numres:                 219
##########                 Pharmacophore_Score:           20.000000
##########              desc_FMS_num_match_tot:                   0
##########              desc_FMS_max_match_ref:                  10
##########              desc_FMS_max_match_mol:                   6
##########                 desc_FMS_match_rate:            4.000000
##########                desc_FMS_match_resid:            0.000000
##########    desc_FMS_num_hydrophobic_matched:                   0
##########          desc_FMS_num_donor_matched:                   0
##########       desc_FMS_num_acceptor_matched:                   0
##########       desc_FMS_num_aromatic_matched:                   0
##########       desc_FMS_num_positive_matched:                   0
##########       desc_FMS_num_negative_matched:                   0
##########           desc_FMS_num_ring_matched:                   0
########## Hungarian_Matching_Similarity_Score:            2.779660
##########       desc_HMS_num_unmtchd_hvy_atms:                  32
##########           desc_HMS_num_ref_hvy_atms:                  23
##########        desc_HMS_rmsd_mtchd_hvy_atms:            0.823138
##########               Property_Volume_Score:            0.357186
##########               desc_VOS_geometric_vo:            0.523884
##########                desc_VOS_hvy_atom_vo:            0.422513
##########            desc_VOS_pos_chrg_atm_vo:            0.439456
##########            desc_VOS_neg_chrg_atm_vo:            0.383738
##########         desc_VOS_hydrophobic_atm_vo:            0.373525
##########         desc_VOS_hydrophilic_atm_vo:            0.000000
##########           Internal_energy_repulsive:            2.575429

@<TRIPOS>MOLECULE
138
 28 30 1 0 0
SMALL
GASTEIGER


@<TRIPOS>ATOM
      1 N          11.8561   11.3248   43.2085 N.3     1  UNL1       -0.3246
      2 C          12.8641   12.3648   43.4771 C.3     1  UNL1        0.0172
      3 C          12.2565   13.4623   44.3924 C.3     1  UNL1       -0.0320
      4 C          13.3204   13.0104   42.1406 C.3     1  UNL1       -0.0320
      5 C          14.0935   11.7336   44.1852 C.3     1  UNL1       -0.0320
      6 C          13.3170   14.5572   44.6751 C.3     1  UNL1       -0.0389
      7 C          14.3822   14.1046   42.4211 C.3     1  UNL1       -0.0389
      8 C          15.1559   12.8267   44.4675 C.3     1  UNL1       -0.0389
      9 C          13.7681   15.1950   43.3361 C.3     1  UNL1       -0.0472
     10 C          14.5411   13.9185   45.3800 C.3     1  UNL1       -0.0472
     11 C          15.6046   13.4659   43.1285 C.3     1  UNL1       -0.0472
     12 H          11.1589   11.6761   42.5551 H       1  UNL1        0.1187
     13 H          11.3686   11.0818   44.0684 H       1  UNL1        0.1187
     14 H          11.9190   13.0232   45.3351 H       1  UNL1        0.0286
     15 H          11.3815   13.9107   43.9142 H       1  UNL1        0.0286
     16 H          12.4643   13.4506   41.6224 H       1  UNL1        0.0286
     17 H          13.7407   12.2487   41.4782 H       1  UNL1        0.0286
     18 H          14.5276   10.9492   43.5593 H       1  UNL1        0.0286
     19 H          13.7882   11.2641   45.1243 H       1  UNL1        0.0286
     20 H          12.8848   15.3268   45.3192 H       1  UNL1        0.0302
     21 H          14.6999   14.5554   41.4778 H       1  UNL1        0.0302
     22 H          16.0187   12.3775   44.9653 H       1  UNL1        0.0302
     23 H          14.5029   15.9817   43.5252 H       1  UNL1        0.0271
     24 H          12.9148   15.6632   42.8388 H       1  UNL1        0.0271
     25 H          14.2367   13.4806   46.3341 H       1  UNL1        0.0271
     26 H          15.2879   14.6857   45.6008 H       1  UNL1        0.0271
     27 H          16.3686   14.2254   43.3138 H       1  UNL1        0.0271
     28 H          16.0544   12.7062   42.4840 H       1  UNL1        0.0271
@<TRIPOS>BOND
     1     1     2    1
     2     2     3    1
     3     2     4    1
     4     2     5    1
     5     3     6    1
     6     4     7    1
     7     5     8    1
     8     6     9    1
     9     6    10    1
    10     7    11    1
    11     7     9    1
    12     8    10    1
    13     8    11    1
    14     1    12    1
    15     1    13    1
    16     3    14    1
    17     3    15    1
    18     4    16    1
    19     4    17    1
    20     5    18    1
    21     5    19    1
    22     6    20    1
    23     7    21    1
    24     8    22    1
    25     9    23    1
    26     9    24    1
    27    10    25    1
    28    10    26    1
    29    11    27    1
    30    11    28    1
@<TRIPOS>SUBSTRUCTURE
     1 UNL1        1 TEMP              0 ****  ****    0 ROOT


##########                                Name:                 139
##########                DOCK_Rotatable_Bonds:                   2
##########                         Heavy_Atoms:                   8
##########                    Molecular_Weight:             110.112
##########                       Formal_Charge:        -2.98023e-08
##########                     HBond_Acceptors:                   2
##########                        HBond_Donors:                   2
##########                    Descriptor_Score:           38.462769
##########          Footprint_Similarity_Score:           11.085063
##########                 desc_FPS_vdw_energy:          -17.465673
##########                  desc_FPS_es_energy:           -2.461567
##########              desc_FPS_vdw+es_energy:          -19.927240
##########                  desc_FPS_num_hbond:                   2
##########                    desc_FPS_vdw_fps:            8.375106
##########                     desc_FPS_es_fps:            2.709957
##########                     desc_FPS_hb_fps:            2.000000
##########              desc_FPS_vdw_fp_numres:                 219
##########               desc_FPS_es_fp_numres:                 219
##########               desc_FPS_hb_fp_numres:                 219
##########                 Pharmacophore_Score:           20.000000
##########              desc_FMS_num_match_tot:                   0
##########              desc_FMS_max_match_ref:                  10
##########              desc_FMS_max_match_mol:                   5
##########                 desc_FMS_match_rate:            4.000000
##########                desc_FMS_match_resid:            0.000000
##########    desc_FMS_num_hydrophobic_matched:                   0
##########          desc_FMS_num_donor_matched:                   0
##########       desc_FMS_num_acceptor_matched:                   0
##########       desc_FMS_num_aromatic_matched:                   0
##########       desc_FMS_num_positive_matched:                   0
##########       desc_FMS_num_negative_matched:                   0
##########           desc_FMS_num_ring_matched:                   0
########## Hungarian_Matching_Similarity_Score:            7.377704
##########       desc_HMS_num_unmtchd_hvy_atms:                  17
##########           desc_HMS_num_ref_hvy_atms:                  23
##########        desc_HMS_rmsd_mtchd_hvy_atms:            8.682052
##########               Property_Volume_Score:            0.000000
##########               desc_VOS_geometric_vo:            0.000000
##########                desc_VOS_hvy_atom_vo:            0.000000
##########            desc_VOS_pos_chrg_atm_vo:            0.000000
##########            desc_VOS_neg_chrg_atm_vo:            0.000000
##########         desc_VOS_hydrophobic_atm_vo:            0.000000
##########         desc_VOS_hydrophilic_atm_vo:            0.000000
##########           Internal_energy_repulsive:            0.079667

@<TRIPOS>MOLECULE
139
 14 14 1 0 0
SMALL
GASTEIGER


@<TRIPOS>ATOM
      1 O          22.0158    6.8225   39.7088 O.3     1  UNL1       -0.5033
      2 C          22.3771    8.0445   40.1971 C.ar    1  UNL1        0.1582
      3 C          22.0954    8.3925   41.5215 C.ar    1  UNL1        0.1582
      4 C          23.0016    8.9637   39.3547 C.ar    1  UNL1       -0.0165
      5 O          21.5393    7.4835   42.3740 O.3     1  UNL1       -0.5033
      6 C          22.4156    9.6666   41.9888 C.ar    1  UNL1       -0.0165
      7 C          23.3291   10.2338   39.8269 C.ar    1  UNL1       -0.0581
      8 C          23.0313   10.5870   41.1420 C.ar    1  UNL1       -0.0581
      9 H          21.6600    6.2801   40.4363 H       1  UNL1        0.2923
     10 H          23.2226    8.6951   38.3244 H       1  UNL1        0.0655
     11 H          21.3908    6.6468   41.8963 H       1  UNL1        0.2923
     12 H          22.1966    9.9398   43.0184 H       1  UNL1        0.0655
     13 H          23.8116   10.9505   39.1669 H       1  UNL1        0.0619
     14 H          23.2844   11.5783   41.5099 H       1  UNL1        0.0619
@<TRIPOS>BOND
     1     1     2    1
     2     2     3   ar
     3     2     4   ar
     4     3     5    1
     5     3     6   ar
     6     4     7   ar
     7     6     8   ar
     8     7     8   ar
     9     1     9    1
    10     4    10    1
    11     5    11    1
    12     6    12    1
    13     7    13    1
    14     8    14    1
@<TRIPOS>SUBSTRUCTURE
     1 UNL1        1 TEMP              0 ****  ****    0 ROOT


##########                                Name:                 139
##########                DOCK_Rotatable_Bonds:                   2
##########                         Heavy_Atoms:                   8
##########                    Molecular_Weight:             110.112
##########                       Formal_Charge:        -2.98023e-08
##########                     HBond_Acceptors:                   2
##########                        HBond_Donors:                   2
##########                    Descriptor_Score:           38.713699
##########          Footprint_Similarity_Score:           11.132510
##########                 desc_FPS_vdw_energy:          -16.725086
##########                  desc_FPS_es_energy:           -2.558973
##########              desc_FPS_vdw+es_energy:          -19.284060
##########                  desc_FPS_num_hbond:                   3
##########                    desc_FPS_vdw_fps:            8.326388
##########                     desc_FPS_es_fps:            2.806122
##########                     desc_FPS_hb_fps:            2.236068
##########              desc_FPS_vdw_fp_numres:                 219
##########               desc_FPS_es_fp_numres:                 219
##########               desc_FPS_hb_fp_numres:                 219
##########                 Pharmacophore_Score:           20.000000
##########              desc_FMS_num_match_tot:                   0
##########              desc_FMS_max_match_ref:                  10
##########              desc_FMS_max_match_mol:                   5
##########                 desc_FMS_match_rate:            4.000000
##########                desc_FMS_match_resid:            0.000000
##########    desc_FMS_num_hydrophobic_matched:                   0
##########          desc_FMS_num_donor_matched:                   0
##########       desc_FMS_num_acceptor_matched:                   0
##########       desc_FMS_num_aromatic_matched:                   0
##########       desc_FMS_num_positive_matched:                   0
##########       desc_FMS_num_negative_matched:                   0
##########           desc_FMS_num_ring_matched:                   0
########## Hungarian_Matching_Similarity_Score:            7.581188
##########       desc_HMS_num_unmtchd_hvy_atms:                  17
##########           desc_HMS_num_ref_hvy_atms:                  23
##########        desc_HMS_rmsd_mtchd_hvy_atms:            8.885536
##########               Property_Volume_Score:            0.000000
##########               desc_VOS_geometric_vo:            0.000000
##########                desc_VOS_hvy_atom_vo:            0.000000
##########            desc_VOS_pos_chrg_atm_vo:            0.000000
##########            desc_VOS_neg_chrg_atm_vo:            0.000000
##########         desc_VOS_hydrophobic_atm_vo:            0.000000
##########         desc_VOS_hydrophilic_atm_vo:            0.000000
##########           Internal_energy_repulsive:            0.079675

@<TRIPOS>MOLECULE
139
 14 14 1 0 0
SMALL
GASTEIGER


@<TRIPOS>ATOM
      1 O          21.5939    7.4698   42.2677 O.3     1  UNL1       -0.5033
      2 C          22.1821    8.3096   41.3673 C.ar    1  UNL1        0.1582
      3 C          22.4362    7.8849   40.0598 C.ar    1  UNL1        0.1582
      4 C          22.5627    9.5897   41.7686 C.ar    1  UNL1       -0.0165
      5 O          22.0163    6.6578   39.6354 O.3     1  UNL1       -0.5033
      6 C          23.0929    8.7327   39.1686 C.ar    1  UNL1       -0.0165
      7 C          23.2108   10.4389   40.8730 C.ar    1  UNL1       -0.0581
      8 C          23.4808   10.0085   39.5750 C.ar    1  UNL1       -0.0581
      9 H          21.4455    6.6032   41.8469 H       1  UNL1        0.2923
     10 H          22.3653    9.9228   42.7848 H       1  UNL1        0.0655
     11 H          21.6101    6.1829   40.3835 H       1  UNL1        0.2923
     12 H          23.2924    8.4042   38.1513 H       1  UNL1        0.0655
     13 H          23.5109   11.4348   41.1896 H       1  UNL1        0.0619
     14 H          23.9885   10.6696   38.8769 H       1  UNL1        0.0619
@<TRIPOS>BOND
     1     1     2    1
     2     2     3   ar
     3     2     4   ar
     4     3     5    1
     5     3     6   ar
     6     4     7   ar
     7     6     8   ar
     8     7     8   ar
     9     1     9    1
    10     4    10    1
    11     5    11    1
    12     6    12    1
    13     7    13    1
    14     8    14    1
@<TRIPOS>SUBSTRUCTURE
     1 UNL1        1 TEMP              0 ****  ****    0 ROOT


##########                                Name:                 139
##########                DOCK_Rotatable_Bonds:                   2
##########                         Heavy_Atoms:                   8
##########                    Molecular_Weight:             110.112
##########                       Formal_Charge:        -2.98023e-08
##########                     HBond_Acceptors:                   2
##########                        HBond_Donors:                   2
##########                    Descriptor_Score:           38.299850
##########          Footprint_Similarity_Score:           10.756495
##########                 desc_FPS_vdw_energy:          -17.058395
##########                  desc_FPS_es_energy:           -2.243089
##########              desc_FPS_vdw+es_energy:          -19.301483
##########                  desc_FPS_num_hbond:                   1
##########                    desc_FPS_vdw_fps:            8.287106
##########                     desc_FPS_es_fps:            2.469390
##########                     desc_FPS_hb_fps:            1.000000
##########              desc_FPS_vdw_fp_numres:                 219
##########               desc_FPS_es_fp_numres:                 219
##########               desc_FPS_hb_fp_numres:                 219
##########                 Pharmacophore_Score:           20.000000
##########              desc_FMS_num_match_tot:                   0
##########              desc_FMS_max_match_ref:                  10
##########              desc_FMS_max_match_mol:                   5
##########                 desc_FMS_match_rate:            4.000000
##########                desc_FMS_match_resid:            0.000000
##########    desc_FMS_num_hydrophobic_matched:                   0
##########          desc_FMS_num_donor_matched:                   0
##########       desc_FMS_num_acceptor_matched:                   0
##########       desc_FMS_num_aromatic_matched:                   0
##########       desc_FMS_num_positive_matched:                   0
##########       desc_FMS_num_negative_matched:                   0
##########           desc_FMS_num_ring_matched:                   0
########## Hungarian_Matching_Similarity_Score:            7.543356
##########       desc_HMS_num_unmtchd_hvy_atms:                  17
##########           desc_HMS_num_ref_hvy_atms:                  23
##########        desc_HMS_rmsd_mtchd_hvy_atms:            8.847704
##########               Property_Volume_Score:            0.000000
##########               desc_VOS_geometric_vo:            0.000000
##########                desc_VOS_hvy_atom_vo:            0.000000
##########            desc_VOS_pos_chrg_atm_vo:            0.000000
##########            desc_VOS_neg_chrg_atm_vo:            0.000000
##########         desc_VOS_hydrophobic_atm_vo:            0.000000
##########         desc_VOS_hydrophilic_atm_vo:            0.000000
##########           Internal_energy_repulsive:            0.079680

@<TRIPOS>MOLECULE
139
 14 14 1 0 0
SMALL
GASTEIGER


@<TRIPOS>ATOM
      1 O          22.5858    9.9902   42.7547 O.3     1  UNL1       -0.5033
      2 C          22.5320    9.4449   41.5049 C.ar    1  UNL1        0.1582
      3 C          22.0127    8.1615   41.3109 C.ar    1  UNL1        0.1582
      4 C          23.0320   10.1637   40.4196 C.ar    1  UNL1       -0.0165
      5 O          21.4656    7.4701   42.3525 O.3     1  UNL1       -0.5033
      6 C          22.0204    7.5935   40.0376 C.ar    1  UNL1       -0.0165
      7 C          23.0301    9.5973   39.1459 C.ar    1  UNL1       -0.0581
      8 C          22.5294    8.3104   38.9559 C.ar    1  UNL1       -0.0581
      9 H          22.9893   10.8758   42.7000 H       1  UNL1        0.2923
     10 H          23.4356   11.1626   40.5678 H       1  UNL1        0.0655
     11 H          21.1568    6.6025   42.0330 H       1  UNL1        0.2923
     12 H          21.6178    6.5949   39.8844 H       1  UNL1        0.0655
     13 H          23.4249   10.1578   38.3020 H       1  UNL1        0.0619
     14 H          22.5301    7.8673   37.9629 H       1  UNL1        0.0619
@<TRIPOS>BOND
     1     1     2    1
     2     2     3   ar
     3     2     4   ar
     4     3     5    1
     5     3     6   ar
     6     4     7   ar
     7     6     8   ar
     8     7     8   ar
     9     1     9    1
    10     4    10    1
    11     5    11    1
    12     6    12    1
    13     7    13    1
    14     8    14    1
@<TRIPOS>SUBSTRUCTURE
     1 UNL1        1 TEMP              0 ****  ****    0 ROOT


##########                                Name:                 140
##########                DOCK_Rotatable_Bonds:                   6
##########                         Heavy_Atoms:                  13
##########                    Molecular_Weight:             192.169
##########                       Formal_Charge:         2.98023e-08
##########                     HBond_Acceptors:                   6
##########                        HBond_Donors:                   5
##########                    Descriptor_Score:           29.511312
##########          Footprint_Similarity_Score:            5.698596
##########                 desc_FPS_vdw_energy:          -21.405207
##########                  desc_FPS_es_energy:           -3.524096
##########              desc_FPS_vdw+es_energy:          -24.929302
##########                  desc_FPS_num_hbond:                   3
##########                    desc_FPS_vdw_fps:            3.840786
##########                     desc_FPS_es_fps:            1.857810
##########                     desc_FPS_hb_fps:            2.236068
##########              desc_FPS_vdw_fp_numres:                 219
##########               desc_FPS_es_fp_numres:                 219
##########               desc_FPS_hb_fp_numres:                 219
##########                 Pharmacophore_Score:           20.000000
##########              desc_FMS_num_match_tot:                   0
##########              desc_FMS_max_match_ref:                  10
##########              desc_FMS_max_match_mol:                  12
##########                 desc_FMS_match_rate:            4.000000
##########                desc_FMS_match_resid:            0.000000
##########    desc_FMS_num_hydrophobic_matched:                   0
##########          desc_FMS_num_donor_matched:                   0
##########       desc_FMS_num_acceptor_matched:                   0
##########       desc_FMS_num_aromatic_matched:                   0
##########       desc_FMS_num_positive_matched:                   0
##########       desc_FMS_num_negative_matched:                   0
##########           desc_FMS_num_ring_matched:                   0
########## Hungarian_Matching_Similarity_Score:            4.029011
##########       desc_HMS_num_unmtchd_hvy_atms:                  28
##########           desc_HMS_num_ref_hvy_atms:                  23
##########        desc_HMS_rmsd_mtchd_hvy_atms:            2.942055
##########               Property_Volume_Score:            0.216293
##########               desc_VOS_geometric_vo:            0.403798
##########                desc_VOS_hvy_atom_vo:            0.390744
##########            desc_VOS_pos_chrg_atm_vo:            0.215486
##########            desc_VOS_neg_chrg_atm_vo:            0.104017
##########         desc_VOS_hydrophobic_atm_vo:            0.103567
##########         desc_VOS_hydrophilic_atm_vo:            0.080147
##########           Internal_energy_repulsive:            4.238823

@<TRIPOS>MOLECULE
140
 25 25 1 0 0
SMALL
GASTEIGER


@<TRIPOS>ATOM
      1 O          15.6250   12.4454   40.7830 O.2     1  UNL1       -0.2478
      2 C          15.8971   13.3488   41.5459 C.2     1  UNL1        0.3369
      3 O          17.1068   13.8519   41.5969 O.3     1  UNL1       -0.4786
      4 C          14.8698   14.0558   42.4378 C.3     1  UNL1        0.1667
      5 O          14.5591   15.3237   41.8446 O.3     1  UNL1       -0.3772
      6 C          15.4162   14.3484   43.8668 C.3     1  UNL1        0.0152
      7 C          13.5559   13.2392   42.5219 C.3     1  UNL1        0.0152
      8 C          15.5387   13.0849   44.7577 C.3     1  UNL1        0.0866
      9 C          13.7298   11.9533   43.3629 C.3     1  UNL1        0.0866
     10 O          15.8850   13.4753   46.0897 O.3     1  UNL1       -0.3890
     11 C          14.2251   12.2689   44.7953 C.3     1  UNL1        0.1070
     12 O          12.4782   11.2716   43.4466 O.3     1  UNL1       -0.3890
     13 O          13.2150   12.9724   45.5394 O.3     1  UNL1       -0.3867
     14 H          17.6680   13.3666   40.9611 H       1  UNL1        0.2951
     15 H          13.9732   15.7910   42.4666 H       1  UNL1        0.2109
     16 H          14.7531   15.0632   44.3622 H       1  UNL1        0.0324
     17 H          16.3952   14.8294   43.7922 H       1  UNL1        0.0324
     18 H          13.2226   12.9728   41.5152 H       1  UNL1        0.0324
     19 H          12.7692   13.8583   42.9617 H       1  UNL1        0.0324
     20 H          16.3380   12.4460   44.3741 H       1  UNL1        0.0621
     21 H          14.4525   11.2968   42.8690 H       1  UNL1        0.0621
     22 H          16.0489   12.6640   46.6095 H       1  UNL1        0.2099
     23 H          14.4243   11.3212   45.3053 H       1  UNL1        0.0645
     24 H          12.6089   10.4960   44.0242 H       1  UNL1        0.2099
     25 H          12.4020   12.4363   45.5764 H       1  UNL1        0.2100
@<TRIPOS>BOND
     1     1     2    2
     2     2     3    1
     3     2     4    1
     4     4     5    1
     5     4     6    1
     6     4     7    1
     7     6     8    1
     8     7     9    1
     9     8    10    1
    10     8    11    1
    11     9    12    1
    12    11    13    1
    13     9    11    1
    14     3    14    1
    15     5    15    1
    16     6    16    1
    17     6    17    1
    18     7    18    1
    19     7    19    1
    20     8    20    1
    21     9    21    1
    22    10    22    1
    23    11    23    1
    24    12    24    1
    25    13    25    1
@<TRIPOS>SUBSTRUCTURE
     1 UNL1        1 TEMP              0 ****  ****    0 ROOT


##########                                Name:                 140
##########                DOCK_Rotatable_Bonds:                   6
##########                         Heavy_Atoms:                  13
##########                    Molecular_Weight:             192.169
##########                       Formal_Charge:         2.98023e-08
##########                     HBond_Acceptors:                   6
##########                        HBond_Donors:                   5
##########                    Descriptor_Score:           29.599108
##########          Footprint_Similarity_Score:            5.777699
##########                 desc_FPS_vdw_energy:          -21.533484
##########                  desc_FPS_es_energy:           -2.896005
##########              desc_FPS_vdw+es_energy:          -24.429489
##########                  desc_FPS_num_hbond:                   2
##########                    desc_FPS_vdw_fps:            3.791059
##########                     desc_FPS_es_fps:            1.986641
##########                     desc_FPS_hb_fps:            2.000000
##########              desc_FPS_vdw_fp_numres:                 219
##########               desc_FPS_es_fp_numres:                 219
##########               desc_FPS_hb_fp_numres:                 219
##########                 Pharmacophore_Score:           20.000000
##########              desc_FMS_num_match_tot:                   0
##########              desc_FMS_max_match_ref:                  10
##########              desc_FMS_max_match_mol:                  12
##########                 desc_FMS_match_rate:            4.000000
##########                desc_FMS_match_resid:            0.000000
##########    desc_FMS_num_hydrophobic_matched:                   0
##########          desc_FMS_num_donor_matched:                   0
##########       desc_FMS_num_acceptor_matched:                   0
##########       desc_FMS_num_aromatic_matched:                   0
##########       desc_FMS_num_positive_matched:                   0
##########       desc_FMS_num_negative_matched:                   0
##########           desc_FMS_num_ring_matched:                   0
########## Hungarian_Matching_Similarity_Score:            4.037872
##########       desc_HMS_num_unmtchd_hvy_atms:                  28
##########           desc_HMS_num_ref_hvy_atms:                  23
##########        desc_HMS_rmsd_mtchd_hvy_atms:            2.950915
##########               Property_Volume_Score:            0.216463
##########               desc_VOS_geometric_vo:            0.405192
##########                desc_VOS_hvy_atom_vo:            0.390517
##########            desc_VOS_pos_chrg_atm_vo:            0.217007
##########            desc_VOS_neg_chrg_atm_vo:            0.105107
##########         desc_VOS_hydrophobic_atm_vo:            0.103377
##########         desc_VOS_hydrophilic_atm_vo:            0.077575
##########           Internal_energy_repulsive:            4.277517

@<TRIPOS>MOLECULE
140
 25 25 1 0 0
SMALL
GASTEIGER


@<TRIPOS>ATOM
      1 O          15.6325   12.5151   40.7785 O.2     1  UNL1       -0.2478
      2 C          15.8981   13.3933   41.5725 C.2     1  UNL1        0.3369
      3 O          17.1092   13.8886   41.6554 O.3     1  UNL1       -0.4786
      4 C          14.8617   14.0777   42.4715 C.3     1  UNL1        0.1667
      5 O          14.5261   15.3425   41.8853 O.3     1  UNL1       -0.3772
      6 C          15.4084   14.3736   43.8997 C.3     1  UNL1        0.0152
      7 C          13.5630   13.2372   42.5569 C.3     1  UNL1        0.0152
      8 C          15.5571   13.1084   44.7844 C.3     1  UNL1        0.0866
      9 C          13.7633   11.9509   43.3914 C.3     1  UNL1        0.0866
     10 O          15.9015   13.4989   46.1168 O.3     1  UNL1       -0.3890
     11 C          14.2584   12.2688   44.8232 C.3     1  UNL1        0.1070
     12 O          12.5245   11.2465   43.4767 O.3     1  UNL1       -0.3890
     13 O          13.2388   12.9507   45.5744 O.3     1  UNL1       -0.3867
     14 H          17.7019   13.3447   41.1007 H       1  UNL1        0.2951
     15 H          13.9746   15.8169   42.5330 H       1  UNL1        0.2109
     16 H          14.7345   15.0741   44.4010 H       1  UNL1        0.0324
     17 H          16.3783   14.8724   43.8236 H       1  UNL1        0.0324
     18 H          13.2307   12.9695   41.5503 H       1  UNL1        0.0324
     19 H          12.7671   13.8401   43.0026 H       1  UNL1        0.0324
     20 H          16.3662   12.4858   44.3948 H       1  UNL1        0.0621
     21 H          14.4956   11.3097   42.8917 H       1  UNL1        0.0621
     22 H          16.0368   12.6873   46.6442 H       1  UNL1        0.2099
     23 H          14.4766   11.3226   45.3282 H       1  UNL1        0.0645
     24 H          12.6884   10.4333   43.9906 H       1  UNL1        0.2099
     25 H          13.5424   13.0874   46.4903 H       1  UNL1        0.2100
@<TRIPOS>BOND
     1     1     2    2
     2     2     3    1
     3     2     4    1
     4     4     5    1
     5     4     6    1
     6     4     7    1
     7     6     8    1
     8     7     9    1
     9     8    10    1
    10     8    11    1
    11     9    12    1
    12    11    13    1
    13     9    11    1
    14     3    14    1
    15     5    15    1
    16     6    16    1
    17     6    17    1
    18     7    18    1
    19     7    19    1
    20     8    20    1
    21     9    21    1
    22    10    22    1
    23    11    23    1
    24    12    24    1
    25    13    25    1
@<TRIPOS>SUBSTRUCTURE
     1 UNL1        1 TEMP              0 ****  ****    0 ROOT


##########                                Name:                 140
##########                DOCK_Rotatable_Bonds:                   6
##########                         Heavy_Atoms:                  13
##########                    Molecular_Weight:             192.169
##########                       Formal_Charge:         2.98023e-08
##########                     HBond_Acceptors:                   6
##########                        HBond_Donors:                   5
##########                    Descriptor_Score:           29.550737
##########          Footprint_Similarity_Score:            5.721400
##########                 desc_FPS_vdw_energy:          -21.605930
##########                  desc_FPS_es_energy:           -2.553090
##########              desc_FPS_vdw+es_energy:          -24.159019
##########                  desc_FPS_num_hbond:                   3
##########                    desc_FPS_vdw_fps:            3.825988
##########                     desc_FPS_es_fps:            1.895412
##########                     desc_FPS_hb_fps:            2.236068
##########              desc_FPS_vdw_fp_numres:                 219
##########               desc_FPS_es_fp_numres:                 219
##########               desc_FPS_hb_fp_numres:                 219
##########                 Pharmacophore_Score:           20.000000
##########              desc_FMS_num_match_tot:                   0
##########              desc_FMS_max_match_ref:                  10
##########              desc_FMS_max_match_mol:                  12
##########                 desc_FMS_match_rate:            4.000000
##########                desc_FMS_match_resid:            0.000000
##########    desc_FMS_num_hydrophobic_matched:                   0
##########          desc_FMS_num_donor_matched:                   0
##########       desc_FMS_num_acceptor_matched:                   0
##########       desc_FMS_num_aromatic_matched:                   0
##########       desc_FMS_num_positive_matched:                   0
##########       desc_FMS_num_negative_matched:                   0
##########           desc_FMS_num_ring_matched:                   0
########## Hungarian_Matching_Similarity_Score:            4.045382
##########       desc_HMS_num_unmtchd_hvy_atms:                  28
##########           desc_HMS_num_ref_hvy_atms:                  23
##########        desc_HMS_rmsd_mtchd_hvy_atms:            2.958425
##########               Property_Volume_Score:            0.216045
##########               desc_VOS_geometric_vo:            0.404756
##########                desc_VOS_hvy_atom_vo:            0.389549
##########            desc_VOS_pos_chrg_atm_vo:            0.218867
##########            desc_VOS_neg_chrg_atm_vo:            0.104403
##########         desc_VOS_hydrophobic_atm_vo:            0.103094
##########         desc_VOS_hydrophilic_atm_vo:            0.075602
##########           Internal_energy_repulsive:            4.212850

@<TRIPOS>MOLECULE
140
 25 25 1 0 0
SMALL
GASTEIGER


@<TRIPOS>ATOM
      1 O          15.6130   12.5024   40.8033 O.2     1  UNL1       -0.2478
      2 C          15.8996   13.4144   41.5506 C.2     1  UNL1        0.3369
      3 O          17.1060   13.9277   41.5619 O.3     1  UNL1       -0.4786
      4 C          14.8929   14.1205   42.4663 C.3     1  UNL1        0.1667
      5 O          14.5862   15.3986   41.8933 O.3     1  UNL1       -0.3772
      6 C          15.4635   14.3900   43.8904 C.3     1  UNL1        0.0152
      7 C          13.5722   13.3159   42.5602 C.3     1  UNL1        0.0152
      8 C          15.5866   13.1144   44.7639 C.3     1  UNL1        0.0866
      9 C          13.7457   12.0182   43.3828 C.3     1  UNL1        0.0866
     10 O          15.9565   13.4849   46.0952 O.3     1  UNL1       -0.3890
     11 C          14.2654   12.3111   44.8113 C.3     1  UNL1        0.1070
     12 O          12.4887   11.3479   43.4769 O.3     1  UNL1       -0.3890
     13 O          13.2737   13.0153   45.5790 O.3     1  UNL1       -0.3867
     14 H          17.0949   14.7256   42.1258 H       1  UNL1        0.2951
     15 H          13.9929   15.8533   42.5176 H       1  UNL1        0.2109
     16 H          14.8151   15.1052   44.4044 H       1  UNL1        0.0324
     17 H          16.4461   14.8621   43.8069 H       1  UNL1        0.0324
     18 H          13.2214   13.0653   41.5555 H       1  UNL1        0.0324
     19 H          12.7985   13.9373   43.0193 H       1  UNL1        0.0324
     20 H          16.3735   12.4724   44.3606 H       1  UNL1        0.0621
     21 H          14.4542   11.3606   42.8701 H       1  UNL1        0.0621
     22 H          16.1821   12.6693   46.5842 H       1  UNL1        0.2099
     23 H          14.4627   11.3553   45.3067 H       1  UNL1        0.0645
     24 H          12.6163   10.5729   44.0562 H       1  UNL1        0.2099
     25 H          12.4405   12.5099   45.5806 H       1  UNL1        0.2100
@<TRIPOS>BOND
     1     1     2    2
     2     2     3    1
     3     2     4    1
     4     4     5    1
     5     4     6    1
     6     4     7    1
     7     6     8    1
     8     7     9    1
     9     8    10    1
    10     8    11    1
    11     9    12    1
    12    11    13    1
    13     9    11    1
    14     3    14    1
    15     5    15    1
    16     6    16    1
    17     6    17    1
    18     7    18    1
    19     7    19    1
    20     8    20    1
    21     9    21    1
    22    10    22    1
    23    11    23    1
    24    12    24    1
    25    13    25    1
@<TRIPOS>SUBSTRUCTURE
     1 UNL1        1 TEMP              0 ****  ****    0 ROOT


##########                                Name:                 141
##########                DOCK_Rotatable_Bonds:                   5
##########                         Heavy_Atoms:                  12
##########                    Molecular_Weight:             164.161
##########                       Formal_Charge:        -6.70552e-08
##########                     HBond_Acceptors:                   3
##########                        HBond_Donors:                   2
##########                    Descriptor_Score:           39.667641
##########          Footprint_Similarity_Score:           11.500771
##########                 desc_FPS_vdw_energy:          -21.702616
##########                  desc_FPS_es_energy:           -2.973150
##########              desc_FPS_vdw+es_energy:          -24.675766
##########                  desc_FPS_num_hbond:                   3
##########                    desc_FPS_vdw_fps:            9.080803
##########                     desc_FPS_es_fps:            2.419967
##########                     desc_FPS_hb_fps:            1.732051
##########              desc_FPS_vdw_fp_numres:                 219
##########               desc_FPS_es_fp_numres:                 219
##########               desc_FPS_hb_fp_numres:                 219
##########                 Pharmacophore_Score:           20.000000
##########              desc_FMS_num_match_tot:                   0
##########              desc_FMS_max_match_ref:                  10
##########              desc_FMS_max_match_mol:                   8
##########                 desc_FMS_match_rate:            4.000000
##########                desc_FMS_match_resid:            0.000000
##########    desc_FMS_num_hydrophobic_matched:                   0
##########          desc_FMS_num_donor_matched:                   0
##########       desc_FMS_num_acceptor_matched:                   0
##########       desc_FMS_num_aromatic_matched:                   0
##########       desc_FMS_num_positive_matched:                   0
##########       desc_FMS_num_negative_matched:                   0
##########           desc_FMS_num_ring_matched:                   0
########## Hungarian_Matching_Similarity_Score:            8.166870
##########       desc_HMS_num_unmtchd_hvy_atms:                  13
##########           desc_HMS_num_ref_hvy_atms:                  23
##########        desc_HMS_rmsd_mtchd_hvy_atms:           10.340783
##########               Property_Volume_Score:            0.000000
##########               desc_VOS_geometric_vo:            0.000000
##########                desc_VOS_hvy_atom_vo:            0.000000
##########            desc_VOS_pos_chrg_atm_vo:            0.000000
##########            desc_VOS_neg_chrg_atm_vo:            0.000000
##########         desc_VOS_hydrophobic_atm_vo:            0.000000
##########         desc_VOS_hydrophilic_atm_vo:            0.000000
##########           Internal_energy_repulsive:            2.463895

@<TRIPOS>MOLECULE
141
 20 20 1 0 0
SMALL
GASTEIGER


@<TRIPOS>ATOM
      1 O          23.2823    9.5338   34.7562 O.2     1  UNL1       -0.2458
      2 C          23.4350    8.7193   35.6419 C.2     1  UNL1        0.3296
      3 O          23.7594    7.4785   35.3764 O.3     1  UNL1       -0.4775
      4 C          23.1959    9.0660   37.0660 C.2     1  UNL1        0.0229
      5 C          22.9673    8.2583   38.1144 C.2     1  UNL1       -0.0477
      6 C          22.7358    8.6732   39.5152 C.ar    1  UNL1       -0.0214
      7 C          22.0571    7.8502   40.4225 C.ar    1  UNL1       -0.0130
      8 C          23.2280    9.9075   39.9415 C.ar    1  UNL1       -0.0544
      9 C          21.8752    8.2653   41.7471 C.ar    1  UNL1        0.1174
     10 C          23.0460   10.3207   41.2585 C.ar    1  UNL1       -0.0578
     11 O          21.2231    7.4855   42.6617 O.3     1  UNL1       -0.5068
     12 C          22.3711    9.5013   42.1593 C.ar    1  UNL1       -0.0201
     13 H          23.8345    6.9779   36.2031 H       1  UNL1        0.2954
     14 H          23.2108   10.1340   37.2834 H       1  UNL1        0.0689
     15 H          22.9119    7.1837   37.9465 H       1  UNL1        0.0626
     16 H          21.6748    6.8852   40.0973 H       1  UNL1        0.0660
     17 H          23.7613   10.5517   39.2458 H       1  UNL1        0.0623
     18 H          23.4337   11.2825   41.5859 H       1  UNL1        0.0619
     19 H          20.8007    6.7090   42.2539 H       1  UNL1        0.2921
     20 H          22.2340    9.8267   43.1880 H       1  UNL1        0.0654
@<TRIPOS>BOND
     1     1     2    2
     2     2     3    1
     3     2     4    1
     4     4     5    2
     5     5     6    1
     6     6     7   ar
     7     6     8   ar
     8     7     9   ar
     9     8    10   ar
    10     9    11    1
    11     9    12   ar
    12    10    12   ar
    13     3    13    1
    14     4    14    1
    15     5    15    1
    16     7    16    1
    17     8    17    1
    18    10    18    1
    19    11    19    1
    20    12    20    1
@<TRIPOS>SUBSTRUCTURE
     1 UNL1        1 TEMP              0 ****  ****    0 ROOT


##########                                Name:                 141
##########                DOCK_Rotatable_Bonds:                   5
##########                         Heavy_Atoms:                  12
##########                    Molecular_Weight:             164.161
##########                       Formal_Charge:        -6.70552e-08
##########                     HBond_Acceptors:                   3
##########                        HBond_Donors:                   2
##########                    Descriptor_Score:           40.042377
##########          Footprint_Similarity_Score:           11.941036
##########                 desc_FPS_vdw_energy:          -21.457794
##########                  desc_FPS_es_energy:           -3.714522
##########              desc_FPS_vdw+es_energy:          -25.172316
##########                  desc_FPS_num_hbond:                   3
##########                    desc_FPS_vdw_fps:            9.019694
##########                     desc_FPS_es_fps:            2.921343
##########                     desc_FPS_hb_fps:            1.732051
##########              desc_FPS_vdw_fp_numres:                 219
##########               desc_FPS_es_fp_numres:                 219
##########               desc_FPS_hb_fp_numres:                 219
##########                 Pharmacophore_Score:           20.000000
##########              desc_FMS_num_match_tot:                   0
##########              desc_FMS_max_match_ref:                  10
##########              desc_FMS_max_match_mol:                   8
##########                 desc_FMS_match_rate:            4.000000
##########                desc_FMS_match_resid:            0.000000
##########    desc_FMS_num_hydrophobic_matched:                   0
##########          desc_FMS_num_donor_matched:                   0
##########       desc_FMS_num_acceptor_matched:                   0
##########       desc_FMS_num_aromatic_matched:                   0
##########       desc_FMS_num_positive_matched:                   0
##########       desc_FMS_num_negative_matched:                   0
##########           desc_FMS_num_ring_matched:                   0
########## Hungarian_Matching_Similarity_Score:            8.101342
##########       desc_HMS_num_unmtchd_hvy_atms:                  13
##########           desc_HMS_num_ref_hvy_atms:                  23
##########        desc_HMS_rmsd_mtchd_hvy_atms:           10.275255
##########               Property_Volume_Score:            0.000000
##########               desc_VOS_geometric_vo:            0.000000
##########                desc_VOS_hvy_atom_vo:            0.000000
##########            desc_VOS_pos_chrg_atm_vo:            0.000000
##########            desc_VOS_neg_chrg_atm_vo:            0.000000
##########         desc_VOS_hydrophobic_atm_vo:            0.000000
##########         desc_VOS_hydrophilic_atm_vo:            0.000000
##########           Internal_energy_repulsive:            3.925888

@<TRIPOS>MOLECULE
141
 20 20 1 0 0
SMALL
GASTEIGER


@<TRIPOS>ATOM
      1 O          23.3918    7.7630   35.2493 O.2     1  UNL1       -0.2458
      2 C          23.3916    8.9030   35.6638 C.2     1  UNL1        0.3296
      3 O          23.6592    9.9137   34.8750 O.3     1  UNL1       -0.4775
      4 C          23.1567    9.2083   37.0981 C.2     1  UNL1        0.0229
      5 C          22.7967    8.3869   38.0978 C.2     1  UNL1       -0.0477
      6 C          22.5786    8.7599   39.5125 C.ar    1  UNL1       -0.0214
      7 C          22.0077    7.8672   40.4280 C.ar    1  UNL1       -0.0130
      8 C          22.9744   10.0271   39.9428 C.ar    1  UNL1       -0.0544
      9 C          21.8364    8.2459   41.7649 C.ar    1  UNL1        0.1174
     10 C          22.8028   10.4040   41.2722 C.ar    1  UNL1       -0.0578
     11 O          21.2883    7.3985   42.6874 O.3     1  UNL1       -0.5068
     12 C          22.2351    9.5152   42.1811 C.ar    1  UNL1       -0.0201
     13 H          23.6484   10.7371   35.3862 H       1  UNL1        0.2954
     14 H          23.3007   10.2538   37.3706 H       1  UNL1        0.0689
     15 H          22.6102    7.3376   37.8734 H       1  UNL1        0.0626
     16 H          21.7011    6.8766   40.0994 H       1  UNL1        0.0660
     17 H          23.4238   10.7259   39.2407 H       1  UNL1        0.0623
     18 H          23.1152   11.3918   41.6026 H       1  UNL1        0.0619
     19 H          21.1507    6.5022   42.3332 H       1  UNL1        0.2921
     20 H          22.1059    9.8128   43.2192 H       1  UNL1        0.0654
@<TRIPOS>BOND
     1     1     2    2
     2     2     3    1
     3     2     4    1
     4     4     5    2
     5     5     6    1
     6     6     7   ar
     7     6     8   ar
     8     7     9   ar
     9     8    10   ar
    10     9    11    1
    11     9    12   ar
    12    10    12   ar
    13     3    13    1
    14     4    14    1
    15     5    15    1
    16     7    16    1
    17     8    17    1
    18    10    18    1
    19    11    19    1
    20    12    20    1
@<TRIPOS>SUBSTRUCTURE
     1 UNL1        1 TEMP              0 ****  ****    0 ROOT


##########                                Name:                 141
##########                DOCK_Rotatable_Bonds:                   5
##########                         Heavy_Atoms:                  12
##########                    Molecular_Weight:             164.161
##########                       Formal_Charge:        -6.70552e-08
##########                     HBond_Acceptors:                   3
##########                        HBond_Donors:                   2
##########                    Descriptor_Score:           39.977562
##########          Footprint_Similarity_Score:           11.813462
##########                 desc_FPS_vdw_energy:          -20.501343
##########                  desc_FPS_es_energy:           -3.729333
##########              desc_FPS_vdw+es_energy:          -24.230677
##########                  desc_FPS_num_hbond:                   2
##########                    desc_FPS_vdw_fps:            8.943684
##########                     desc_FPS_es_fps:            2.869779
##########                     desc_FPS_hb_fps:            1.414214
##########              desc_FPS_vdw_fp_numres:                 219
##########               desc_FPS_es_fp_numres:                 219
##########               desc_FPS_hb_fp_numres:                 219
##########                 Pharmacophore_Score:           20.000000
##########              desc_FMS_num_match_tot:                   0
##########              desc_FMS_max_match_ref:                  10
##########              desc_FMS_max_match_mol:                   8
##########                 desc_FMS_match_rate:            4.000000
##########                desc_FMS_match_resid:            0.000000
##########    desc_FMS_num_hydrophobic_matched:                   0
##########          desc_FMS_num_donor_matched:                   0
##########       desc_FMS_num_acceptor_matched:                   0
##########       desc_FMS_num_aromatic_matched:                   0
##########       desc_FMS_num_positive_matched:                   0
##########       desc_FMS_num_negative_matched:                   0
##########           desc_FMS_num_ring_matched:                   0
########## Hungarian_Matching_Similarity_Score:            8.164100
##########       desc_HMS_num_unmtchd_hvy_atms:                  13
##########           desc_HMS_num_ref_hvy_atms:                  23
##########        desc_HMS_rmsd_mtchd_hvy_atms:           10.338012
##########               Property_Volume_Score:            0.000000
##########               desc_VOS_geometric_vo:            0.000000
##########                desc_VOS_hvy_atom_vo:            0.000000
##########            desc_VOS_pos_chrg_atm_vo:            0.000000
##########            desc_VOS_neg_chrg_atm_vo:            0.000000
##########         desc_VOS_hydrophobic_atm_vo:            0.000000
##########         desc_VOS_hydrophilic_atm_vo:            0.000000
##########           Internal_energy_repulsive:            1.124054

@<TRIPOS>MOLECULE
141
 20 20 1 0 0
SMALL
GASTEIGER


@<TRIPOS>ATOM
      1 O          23.7949    8.7245   35.3788 O.2     1  UNL1       -0.2458
      2 C          23.9726    7.8589   36.2098 C.2     1  UNL1        0.3296
      3 O          24.4474    6.6843   35.8777 O.3     1  UNL1       -0.4775
      4 C          23.5980    8.0593   37.6328 C.2     1  UNL1        0.0229
      5 C          23.2023    9.1779   38.2619 C.2     1  UNL1       -0.0477
      6 C          22.8422    9.3075   39.6908 C.ar    1  UNL1       -0.0214
      7 C          22.1791    8.2826   40.3771 C.ar    1  UNL1       -0.0130
      8 C          23.1950   10.4742   40.3704 C.ar    1  UNL1       -0.0544
      9 C          21.8734    8.4301   41.7353 C.ar    1  UNL1        0.1174
     10 C          22.8898   10.6212   41.7209 C.ar    1  UNL1       -0.0578
     11 O          21.2324    7.4483   42.4386 O.3     1  UNL1       -0.5068
     12 C          22.2305    9.6014   42.4017 C.ar    1  UNL1       -0.0201
     13 H          24.3311    6.0661   36.6151 H       1  UNL1        0.2954
     14 H          23.6545    7.1621   38.2492 H       1  UNL1        0.0689
     15 H          23.1582   10.1090   37.6987 H       1  UNL1        0.0626
     16 H          21.9053    7.3692   39.8538 H       1  UNL1        0.0660
     17 H          23.7151   11.2739   39.8476 H       1  UNL1        0.0623
     18 H          23.1692   11.5315   42.2462 H       1  UNL1        0.0619
     19 H          21.2388    6.5932   41.9732 H       1  UNL1        0.2921
     20 H          21.9970    9.7193   43.4575 H       1  UNL1        0.0654
@<TRIPOS>BOND
     1     1     2    2
     2     2     3    1
     3     2     4    1
     4     4     5    2
     5     5     6    1
     6     6     7   ar
     7     6     8   ar
     8     7     9   ar
     9     8    10   ar
    10     9    11    1
    11     9    12   ar
    12    10    12   ar
    13     3    13    1
    14     4    14    1
    15     5    15    1
    16     7    16    1
    17     8    17    1
    18    10    18    1
    19    11    19    1
    20    12    20    1
@<TRIPOS>SUBSTRUCTURE
     1 UNL1        1 TEMP              0 ****  ****    0 ROOT


##########                                Name:                 142
##########                DOCK_Rotatable_Bonds:                   6
##########                         Heavy_Atoms:                  14
##########                    Molecular_Weight:             194.187
##########                       Formal_Charge:         0.000200033
##########                     HBond_Acceptors:                   4
##########                        HBond_Donors:                   2
##########                    Descriptor_Score:           12.704615
##########          Footprint_Similarity_Score:            5.636610
##########                 desc_FPS_vdw_energy:          -20.792376
##########                  desc_FPS_es_energy:           -4.759635
##########              desc_FPS_vdw+es_energy:          -25.552010
##########                  desc_FPS_num_hbond:                   3
##########                    desc_FPS_vdw_fps:            4.016794
##########                     desc_FPS_es_fps:            1.619816
##########                     desc_FPS_hb_fps:            1.732051
##########              desc_FPS_vdw_fp_numres:                 219
##########               desc_FPS_es_fp_numres:                 219
##########               desc_FPS_hb_fp_numres:                 219
##########                 Pharmacophore_Score:            5.379800
##########              desc_FMS_num_match_tot:                   1
##########              desc_FMS_max_match_ref:                  10
##########              desc_FMS_max_match_mol:                   9
##########                 desc_FMS_match_rate:            0.900000
##########                desc_FMS_match_resid:            0.879800
##########    desc_FMS_num_hydrophobic_matched:                   1
##########          desc_FMS_num_donor_matched:                   0
##########       desc_FMS_num_acceptor_matched:                   0
##########       desc_FMS_num_aromatic_matched:                   0
##########       desc_FMS_num_positive_matched:                   0
##########       desc_FMS_num_negative_matched:                   0
##########           desc_FMS_num_ring_matched:                   0
########## Hungarian_Matching_Similarity_Score:            1.978793
##########       desc_HMS_num_unmtchd_hvy_atms:                  13
##########           desc_HMS_num_ref_hvy_atms:                  23
##########        desc_HMS_rmsd_mtchd_hvy_atms:            4.152706
##########               Property_Volume_Score:            0.290588
##########               desc_VOS_geometric_vo:            0.356953
##########                desc_VOS_hvy_atom_vo:            0.366044
##########            desc_VOS_pos_chrg_atm_vo:            0.303982
##########            desc_VOS_neg_chrg_atm_vo:            0.203343
##########         desc_VOS_hydrophobic_atm_vo:            0.208459
##########         desc_VOS_hydrophilic_atm_vo:            0.304750
##########           Internal_energy_repulsive:            1.562583

@<TRIPOS>MOLECULE
142
 24 24 1 0 0
SMALL
GASTEIGER


@<TRIPOS>ATOM
      1 O          16.7902   15.6247   45.4490 O.2     1  UNL1       -0.2458
      2 C          17.0660   14.6176   44.8327 C.2     1  UNL1        0.3296
      3 O          18.3116   14.2844   44.6010 O.3     1  UNL1       -0.4775
      4 C          16.0081   13.6946   44.3455 C.2     1  UNL1        0.0229
      5 C          14.6732   13.8422   44.3312 C.2     1  UNL1       -0.0477
      6 C          13.6892   12.8600   43.8214 C.ar    1  UNL1       -0.0211
      7 C          12.7079   13.2346   42.8968 C.ar    1  UNL1       -0.0092
      8 C          13.7145   11.5515   44.3042 C.ar    1  UNL1       -0.0509
      9 C          11.7497   12.3039   42.4669 C.ar    1  UNL1        0.1618
     10 C          12.7654   10.6240   43.8775 C.ar    1  UNL1       -0.0160
     11 O          10.7433   12.6145   41.5634 O.3     1  UNL1       -0.4914
     12 C          11.7816   11.0012   42.9660 C.ar    1  UNL1        0.1585
     13 C          10.0628   13.8901   41.5285 C.3     1  UNL1        0.0790
     14 O          10.8359   10.1027   42.5651 O.3     1  UNL1       -0.5033
     15 H          18.3453   13.5513   43.9698 H       1  UNL1        0.2954
     16 H          16.3827   12.7530   43.9434 H       1  UNL1        0.0689
     17 H          14.2408   14.7653   44.7144 H       1  UNL1        0.0626
     18 H          12.6908   14.2561   42.5275 H       1  UNL1        0.0661
     19 H          14.4695   11.2516   45.0267 H       1  UNL1        0.0625
     20 H          12.7872    9.6081   44.2646 H       1  UNL1        0.0655
     21 H           9.3277   13.8732   40.7190 H       1  UNL1        0.0660
     22 H          10.7880   14.6872   41.3430 H       1  UNL1        0.0660
     23 H           9.5505   14.0583   42.4797 H       1  UNL1        0.0660
     24 H          11.2514    9.2136   42.5562 H       1  UNL1        0.2923
@<TRIPOS>BOND
     1     1     2    2
     2     2     3    1
     3     2     4    1
     4     4     5    2
     5     5     6    1
     6     6     7   ar
     7     6     8   ar
     8     7     9   ar
     9     8    10   ar
    10     9    11    1
    11     9    12   ar
    12    11    13    1
    13    12    14    1
    14    10    12   ar
    15     3    15    1
    16     4    16    1
    17     5    17    1
    18     7    18    1
    19     8    19    1
    20    10    20    1
    21    13    21    1
    22    13    22    1
    23    13    23    1
    24    14    24    1
@<TRIPOS>SUBSTRUCTURE
     1 UNL1        1 TEMP              0 ****  ****    0 ROOT


##########                                Name:                 142
##########                DOCK_Rotatable_Bonds:                   6
##########                         Heavy_Atoms:                  14
##########                    Molecular_Weight:             194.187
##########                       Formal_Charge:         0.000200033
##########                     HBond_Acceptors:                   4
##########                        HBond_Donors:                   2
##########                    Descriptor_Score:           41.522831
##########          Footprint_Similarity_Score:           12.473161
##########                 desc_FPS_vdw_energy:          -22.689657
##########                  desc_FPS_es_energy:           -3.257844
##########              desc_FPS_vdw+es_energy:          -25.947502
##########                  desc_FPS_num_hbond:                   2
##########                    desc_FPS_vdw_fps:            9.139410
##########                     desc_FPS_es_fps:            3.333751
##########                     desc_FPS_hb_fps:            2.000000
##########              desc_FPS_vdw_fp_numres:                 219
##########               desc_FPS_es_fp_numres:                 219
##########               desc_FPS_hb_fp_numres:                 219
##########                 Pharmacophore_Score:           20.000000
##########              desc_FMS_num_match_tot:                   0
##########              desc_FMS_max_match_ref:                  10
##########              desc_FMS_max_match_mol:                   9
##########                 desc_FMS_match_rate:            4.000000
##########                desc_FMS_match_resid:            0.000000
##########    desc_FMS_num_hydrophobic_matched:                   0
##########          desc_FMS_num_donor_matched:                   0
##########       desc_FMS_num_acceptor_matched:                   0
##########       desc_FMS_num_aromatic_matched:                   0
##########       desc_FMS_num_positive_matched:                   0
##########       desc_FMS_num_negative_matched:                   0
##########           desc_FMS_num_ring_matched:                   0
########## Hungarian_Matching_Similarity_Score:            9.049671
##########       desc_HMS_num_unmtchd_hvy_atms:                  13
##########           desc_HMS_num_ref_hvy_atms:                  23
##########        desc_HMS_rmsd_mtchd_hvy_atms:           11.223584
##########               Property_Volume_Score:            0.000000
##########               desc_VOS_geometric_vo:            0.000000
##########                desc_VOS_hvy_atom_vo:            0.000000
##########            desc_VOS_pos_chrg_atm_vo:            0.000000
##########            desc_VOS_neg_chrg_atm_vo:            0.000000
##########         desc_VOS_hydrophobic_atm_vo:            0.000000
##########         desc_VOS_hydrophilic_atm_vo:            0.000000
##########           Internal_energy_repulsive:            4.415153

@<TRIPOS>MOLECULE
142
 24 24 1 0 0
SMALL
GASTEIGER


@<TRIPOS>ATOM
      1 O          26.2300    8.6576   37.7915 O.2     1  UNL1       -0.2458
      2 C          25.9269    7.9510   36.8540 C.2     1  UNL1        0.3296
      3 O          26.8232    7.5593   35.9828 O.3     1  UNL1       -0.4775
      4 C          24.5348    7.4643   36.6704 C.2     1  UNL1        0.0229
      5 C          23.4082    7.8069   37.3166 C.2     1  UNL1       -0.0477
      6 C          23.2939    8.7964   38.4124 C.ar    1  UNL1       -0.0211
      7 C          22.7679    8.4364   39.6581 C.ar    1  UNL1       -0.0092
      8 C          23.6764   10.1184   38.1841 C.ar    1  UNL1       -0.0509
      9 C          22.6160    9.4004   40.6665 C.ar    1  UNL1        0.1618
     10 C          23.5288   11.0778   39.1845 C.ar    1  UNL1       -0.0160
     11 O          22.0892    9.1121   41.9175 O.3     1  UNL1       -0.4914
     12 C          22.9938   10.7209   40.4204 C.ar    1  UNL1        0.1585
     13 C          21.6224    7.8002   42.3081 C.3     1  UNL1        0.0790
     14 O          22.8248   11.6627   41.3936 O.3     1  UNL1       -0.5033
     15 H          26.4270    6.9325   35.3605 H       1  UNL1        0.2954
     16 H          24.4209    6.7096   35.8919 H       1  UNL1        0.0689
     17 H          22.4733    7.3219   37.0397 H       1  UNL1        0.0626
     18 H          22.4681    7.4063   39.8285 H       1  UNL1        0.0661
     19 H          24.0813   10.4096   37.2181 H       1  UNL1        0.0625
     20 H          23.8219   12.1079   38.9960 H       1  UNL1        0.0655
     21 H          21.2700    7.8471   43.3422 H       1  UNL1        0.0660
     22 H          22.4446    7.0828   42.2374 H       1  UNL1        0.0660
     23 H          20.7977    7.4961   41.6577 H       1  UNL1        0.0660
     24 H          22.6500   12.5217   40.9525 H       1  UNL1        0.2923
@<TRIPOS>BOND
     1     1     2    2
     2     2     3    1
     3     2     4    1
     4     4     5    2
     5     5     6    1
     6     6     7   ar
     7     6     8   ar
     8     7     9   ar
     9     8    10   ar
    10     9    11    1
    11     9    12   ar
    12    11    13    1
    13    12    14    1
    14    10    12   ar
    15     3    15    1
    16     4    16    1
    17     5    17    1
    18     7    18    1
    19     8    19    1
    20    10    20    1
    21    13    21    1
    22    13    22    1
    23    13    23    1
    24    14    24    1
@<TRIPOS>SUBSTRUCTURE
     1 UNL1        1 TEMP              0 ****  ****    0 ROOT


##########                                Name:                 142
##########                DOCK_Rotatable_Bonds:                   6
##########                         Heavy_Atoms:                  14
##########                    Molecular_Weight:             194.187
##########                       Formal_Charge:         0.000200033
##########                     HBond_Acceptors:                   4
##########                        HBond_Donors:                   2
##########                    Descriptor_Score:           12.762948
##########          Footprint_Similarity_Score:            6.073655
##########                 desc_FPS_vdw_energy:          -20.807999
##########                  desc_FPS_es_energy:           -4.470962
##########              desc_FPS_vdw+es_energy:          -25.278961
##########                  desc_FPS_num_hbond:                   2
##########                    desc_FPS_vdw_fps:            4.115069
##########                     desc_FPS_es_fps:            1.958585
##########                     desc_FPS_hb_fps:            1.414214
##########              desc_FPS_vdw_fp_numres:                 219
##########               desc_FPS_es_fp_numres:                 219
##########               desc_FPS_hb_fp_numres:                 219
##########                 Pharmacophore_Score:            4.956517
##########              desc_FMS_num_match_tot:                   2
##########              desc_FMS_max_match_ref:                  10
##########              desc_FMS_max_match_mol:                   9
##########                 desc_FMS_match_rate:            0.800000
##########                desc_FMS_match_resid:            0.956517
##########    desc_FMS_num_hydrophobic_matched:                   1
##########          desc_FMS_num_donor_matched:                   0
##########       desc_FMS_num_acceptor_matched:                   1
##########       desc_FMS_num_aromatic_matched:                   0
##########       desc_FMS_num_positive_matched:                   0
##########       desc_FMS_num_negative_matched:                   0
##########           desc_FMS_num_ring_matched:                   0
########## Hungarian_Matching_Similarity_Score:            2.016631
##########       desc_HMS_num_unmtchd_hvy_atms:                  13
##########           desc_HMS_num_ref_hvy_atms:                  23
##########        desc_HMS_rmsd_mtchd_hvy_atms:            4.190544
##########               Property_Volume_Score:            0.283856
##########               desc_VOS_geometric_vo:            0.349397
##########                desc_VOS_hvy_atom_vo:            0.359093
##########            desc_VOS_pos_chrg_atm_vo:            0.287237
##########            desc_VOS_neg_chrg_atm_vo:            0.200490
##########         desc_VOS_hydrophobic_atm_vo:            0.203353
##########         desc_VOS_hydrophilic_atm_vo:            0.303566
##########           Internal_energy_repulsive:            4.125090

@<TRIPOS>MOLECULE
142
 24 24 1 0 0
SMALL
GASTEIGER


@<TRIPOS>ATOM
      1 O          17.8389   14.3886   45.4032 O.2     1  UNL1       -0.2458
      2 C          16.7143   14.7222   45.0966 C.2     1  UNL1        0.3296
      3 O          16.3535   15.9815   45.1091 O.3     1  UNL1       -0.4775
      4 C          15.7047   13.7249   44.6553 C.2     1  UNL1        0.0229
      5 C          14.4560   13.9063   44.1949 C.2     1  UNL1       -0.0477
      6 C          13.5146   12.8429   43.7755 C.ar    1  UNL1       -0.0211
      7 C          12.3962   13.1384   42.9881 C.ar    1  UNL1       -0.0092
      8 C          13.7231   11.5335   44.2091 C.ar    1  UNL1       -0.0509
      9 C          11.4852   12.1272   42.6465 C.ar    1  UNL1        0.1618
     10 C          12.8211   10.5264   43.8696 C.ar    1  UNL1       -0.0160
     11 O          10.3506   12.3561   41.8810 O.3     1  UNL1       -0.4914
     12 C          11.7015   10.8239   43.0956 C.ar    1  UNL1        0.1585
     13 C           9.7664   13.6644   41.6844 C.3     1  UNL1        0.0790
     14 O          10.8033    9.8454   42.7823 O.3     1  UNL1       -0.5033
     15 H          17.0518   16.5210   45.5070 H       1  UNL1        0.2954
     16 H          16.0362   12.6886   44.7237 H       1  UNL1        0.0689
     17 H          14.0717   14.9207   44.0988 H       1  UNL1        0.0626
     18 H          12.2370   14.1607   42.6569 H       1  UNL1        0.0661
     19 H          14.5860   11.2943   44.8255 H       1  UNL1        0.0625
     20 H          12.9865    9.5097   44.2181 H       1  UNL1        0.0655
     21 H           8.8926   13.5641   41.0347 H       1  UNL1        0.0660
     22 H          10.4975   14.3244   41.2094 H       1  UNL1        0.0660
     23 H           9.4558   14.0757   42.6488 H       1  UNL1        0.0660
     24 H          11.2533    8.9798   42.8891 H       1  UNL1        0.2923
@<TRIPOS>BOND
     1     1     2    2
     2     2     3    1
     3     2     4    1
     4     4     5    2
     5     5     6    1
     6     6     7   ar
     7     6     8   ar
     8     7     9   ar
     9     8    10   ar
    10     9    11    1
    11     9    12   ar
    12    11    13    1
    13    12    14    1
    14    10    12   ar
    15     3    15    1
    16     4    16    1
    17     5    17    1
    18     7    18    1
    19     8    19    1
    20    10    20    1
    21    13    21    1
    22    13    22    1
    23    13    23    1
    24    14    24    1
@<TRIPOS>SUBSTRUCTURE
     1 UNL1        1 TEMP              0 ****  ****    0 ROOT


##########                                Name:                 145
##########                DOCK_Rotatable_Bonds:                   5
##########                         Heavy_Atoms:                  12
##########                    Molecular_Weight:             164.161
##########                       Formal_Charge:         0.000300109
##########                     HBond_Acceptors:                   3
##########                        HBond_Donors:                   2
##########                    Descriptor_Score:           38.293152
##########          Footprint_Similarity_Score:           10.635141
##########                 desc_FPS_vdw_energy:          -19.938877
##########                  desc_FPS_es_energy:           -2.287280
##########              desc_FPS_vdw+es_energy:          -22.226156
##########                  desc_FPS_num_hbond:                   1
##########                    desc_FPS_vdw_fps:            8.600647
##########                     desc_FPS_es_fps:            2.034495
##########                     desc_FPS_hb_fps:            1.000000
##########              desc_FPS_vdw_fp_numres:                 219
##########               desc_FPS_es_fp_numres:                 219
##########               desc_FPS_hb_fp_numres:                 219
##########                 Pharmacophore_Score:           20.000000
##########              desc_FMS_num_match_tot:                   0
##########              desc_FMS_max_match_ref:                  10
##########              desc_FMS_max_match_mol:                   8
##########                 desc_FMS_match_rate:            4.000000
##########                desc_FMS_match_resid:            0.000000
##########    desc_FMS_num_hydrophobic_matched:                   0
##########          desc_FMS_num_donor_matched:                   0
##########       desc_FMS_num_acceptor_matched:                   0
##########       desc_FMS_num_aromatic_matched:                   0
##########       desc_FMS_num_positive_matched:                   0
##########       desc_FMS_num_negative_matched:                   0
##########           desc_FMS_num_ring_matched:                   0
########## Hungarian_Matching_Similarity_Score:            7.658012
##########       desc_HMS_num_unmtchd_hvy_atms:                  13
##########           desc_HMS_num_ref_hvy_atms:                  23
##########        desc_HMS_rmsd_mtchd_hvy_atms:            9.831925
##########               Property_Volume_Score:            0.000000
##########               desc_VOS_geometric_vo:            0.000000
##########                desc_VOS_hvy_atom_vo:            0.000000
##########            desc_VOS_pos_chrg_atm_vo:            0.000000
##########            desc_VOS_neg_chrg_atm_vo:            0.000000
##########         desc_VOS_hydrophobic_atm_vo:            0.000000
##########         desc_VOS_hydrophilic_atm_vo:            0.000000
##########           Internal_energy_repulsive:            3.014554

@<TRIPOS>MOLECULE
145
 20 20 1 0 0
SMALL
GASTEIGER


@<TRIPOS>ATOM
      1 O          23.5887   14.2213   43.2332 O.2     1  UNL1       -0.2458
      2 C          23.2378   13.0830   43.4624 C.2     1  UNL1        0.3296
      3 O          22.9868   12.6786   44.6817 O.3     1  UNL1       -0.4775
      4 C          23.1075   12.0748   42.3805 C.2     1  UNL1        0.0229
      5 C          22.8159   10.7658   42.4656 C.2     1  UNL1       -0.0478
      6 C          22.6986    9.8037   41.3475 C.ar    1  UNL1       -0.0246
      7 C          22.1616    8.5321   41.5640 C.ar    1  UNL1       -0.0511
      8 C          23.1111   10.1587   40.0606 C.ar    1  UNL1       -0.0511
      9 C          22.0338    7.6275   40.5102 C.ar    1  UNL1       -0.0196
     10 C          22.9806    9.2555   39.0054 C.ar    1  UNL1       -0.0196
     11 C          22.4393    7.9895   39.2255 C.ar    1  UNL1        0.1169
     12 O          22.3059    7.1159   38.1841 O.3     1  UNL1       -0.5068
     13 H          23.1415   11.7237   44.7378 H       1  UNL1        0.2954
     14 H          23.2795   12.4620   41.3764 H       1  UNL1        0.0689
     15 H          22.6495   10.3318   43.4509 H       1  UNL1        0.0626
     16 H          21.8367    8.2402   42.5599 H       1  UNL1        0.0625
     17 H          23.5318   11.1440   39.8743 H       1  UNL1        0.0625
     18 H          21.6142    6.6422   40.6951 H       1  UNL1        0.0654
     19 H          23.2992    9.5430   38.0048 H       1  UNL1        0.0654
     20 H          22.9549    7.3051   37.4788 H       1  UNL1        0.2921
@<TRIPOS>BOND
     1     1     2    2
     2     2     3    1
     3     2     4    1
     4     4     5    2
     5     5     6    1
     6     6     7   ar
     7     6     8   ar
     8     7     9   ar
     9     8    10   ar
    10     9    11   ar
    11    11    12    1
    12    10    11   ar
    13     3    13    1
    14     4    14    1
    15     5    15    1
    16     7    16    1
    17     8    17    1
    18     9    18    1
    19    10    19    1
    20    12    20    1
@<TRIPOS>SUBSTRUCTURE
     1 UNL1        1 TEMP              0 ****  ****    0 ROOT


##########                                Name:                 145
##########                DOCK_Rotatable_Bonds:                   5
##########                         Heavy_Atoms:                  12
##########                    Molecular_Weight:             164.161
##########                       Formal_Charge:         0.000300109
##########                     HBond_Acceptors:                   3
##########                        HBond_Donors:                   2
##########                    Descriptor_Score:           39.998745
##########          Footprint_Similarity_Score:           11.579461
##########                 desc_FPS_vdw_energy:          -21.581341
##########                  desc_FPS_es_energy:           -2.801497
##########              desc_FPS_vdw+es_energy:          -24.382837
##########                  desc_FPS_num_hbond:                   3
##########                    desc_FPS_vdw_fps:            8.973922
##########                     desc_FPS_es_fps:            2.605539
##########                     desc_FPS_hb_fps:            1.732051
##########              desc_FPS_vdw_fp_numres:                 219
##########               desc_FPS_es_fp_numres:                 219
##########               desc_FPS_hb_fp_numres:                 219
##########                 Pharmacophore_Score:           20.000000
##########              desc_FMS_num_match_tot:                   0
##########              desc_FMS_max_match_ref:                  10
##########              desc_FMS_max_match_mol:                   8
##########                 desc_FMS_match_rate:            4.000000
##########                desc_FMS_match_resid:            0.000000
##########    desc_FMS_num_hydrophobic_matched:                   0
##########          desc_FMS_num_donor_matched:                   0
##########       desc_FMS_num_acceptor_matched:                   0
##########       desc_FMS_num_aromatic_matched:                   0
##########       desc_FMS_num_positive_matched:                   0
##########       desc_FMS_num_negative_matched:                   0
##########           desc_FMS_num_ring_matched:                   0
########## Hungarian_Matching_Similarity_Score:            8.419285
##########       desc_HMS_num_unmtchd_hvy_atms:                  13
##########           desc_HMS_num_ref_hvy_atms:                  23
##########        desc_HMS_rmsd_mtchd_hvy_atms:           10.593198
##########               Property_Volume_Score:            0.000000
##########               desc_VOS_geometric_vo:            0.000000
##########                desc_VOS_hvy_atom_vo:            0.000000
##########            desc_VOS_pos_chrg_atm_vo:            0.000000
##########            desc_VOS_neg_chrg_atm_vo:            0.000000
##########         desc_VOS_hydrophobic_atm_vo:            0.000000
##########         desc_VOS_hydrophilic_atm_vo:            0.000000
##########           Internal_energy_repulsive:            2.992048

@<TRIPOS>MOLECULE
145
 20 20 1 0 0
SMALL
GASTEIGER


@<TRIPOS>ATOM
      1 O          22.1901    9.4661   42.7672 O.2     1  UNL1       -0.2458
      2 C          21.8685    8.4500   42.1879 C.2     1  UNL1        0.3296
      3 O          21.2018    7.5007   42.7942 O.3     1  UNL1       -0.4775
      4 C          22.2425    8.2086   40.7717 C.2     1  UNL1        0.0229
      5 C          22.8187    9.0413   39.8883 C.2     1  UNL1       -0.0478
      6 C          23.1704    8.7450   38.4818 C.ar    1  UNL1       -0.0246
      7 C          23.0788    7.4399   37.9913 C.ar    1  UNL1       -0.0511
      8 C          23.5857    9.7671   37.6245 C.ar    1  UNL1       -0.0511
      9 C          23.3934    7.1583   36.6621 C.ar    1  UNL1       -0.0196
     10 C          23.8975    9.4867   36.2939 C.ar    1  UNL1       -0.0196
     11 C          23.7996    8.1835   35.8078 C.ar    1  UNL1        0.1169
     12 O          24.0969    7.9205   34.5010 O.3     1  UNL1       -0.5068
     13 H          21.0662    6.7648   42.1785 H       1  UNL1        0.2954
     14 H          22.0072    7.2100   40.4041 H       1  UNL1        0.0689
     15 H          23.0595   10.0547   40.2075 H       1  UNL1        0.0626
     16 H          22.7580    6.6331   38.6461 H       1  UNL1        0.0625
     17 H          23.6631   10.7885   37.9897 H       1  UNL1        0.0625
     18 H          23.3172    6.1378   36.2960 H       1  UNL1        0.0654
     19 H          24.2144   10.2906   35.6317 H       1  UNL1        0.0654
     20 H          24.5383    8.6828   34.0787 H       1  UNL1        0.2921
@<TRIPOS>BOND
     1     1     2    2
     2     2     3    1
     3     2     4    1
     4     4     5    2
     5     5     6    1
     6     6     7   ar
     7     6     8   ar
     8     7     9   ar
     9     8    10   ar
    10     9    11   ar
    11    11    12    1
    12    10    11   ar
    13     3    13    1
    14     4    14    1
    15     5    15    1
    16     7    16    1
    17     8    17    1
    18     9    18    1
    19    10    19    1
    20    12    20    1
@<TRIPOS>SUBSTRUCTURE
     1 UNL1        1 TEMP              0 ****  ****    0 ROOT


##########                                Name:                 145
##########                DOCK_Rotatable_Bonds:                   5
##########                         Heavy_Atoms:                  12
##########                    Molecular_Weight:             164.161
##########                       Formal_Charge:         0.000300109
##########                     HBond_Acceptors:                   3
##########                        HBond_Donors:                   2
##########                    Descriptor_Score:           40.126366
##########          Footprint_Similarity_Score:           12.060234
##########                 desc_FPS_vdw_energy:          -22.744614
##########                  desc_FPS_es_energy:           -0.857266
##########              desc_FPS_vdw+es_energy:          -23.601879
##########                  desc_FPS_num_hbond:                   2
##########                    desc_FPS_vdw_fps:            9.975732
##########                     desc_FPS_es_fps:            2.084502
##########                     desc_FPS_hb_fps:            1.414214
##########              desc_FPS_vdw_fp_numres:                 219
##########               desc_FPS_es_fp_numres:                 219
##########               desc_FPS_hb_fp_numres:                 219
##########                 Pharmacophore_Score:           20.000000
##########              desc_FMS_num_match_tot:                   0
##########              desc_FMS_max_match_ref:                  10
##########              desc_FMS_max_match_mol:                   8
##########                 desc_FMS_match_rate:            4.000000
##########                desc_FMS_match_resid:            0.000000
##########    desc_FMS_num_hydrophobic_matched:                   0
##########          desc_FMS_num_donor_matched:                   0
##########       desc_FMS_num_acceptor_matched:                   0
##########       desc_FMS_num_aromatic_matched:                   0
##########       desc_FMS_num_positive_matched:                   0
##########       desc_FMS_num_negative_matched:                   0
##########           desc_FMS_num_ring_matched:                   0
########## Hungarian_Matching_Similarity_Score:            8.066132
##########       desc_HMS_num_unmtchd_hvy_atms:                  13
##########           desc_HMS_num_ref_hvy_atms:                  23
##########        desc_HMS_rmsd_mtchd_hvy_atms:           10.240044
##########               Property_Volume_Score:            0.000000
##########               desc_VOS_geometric_vo:            0.000000
##########                desc_VOS_hvy_atom_vo:            0.000000
##########            desc_VOS_pos_chrg_atm_vo:            0.000000
##########            desc_VOS_neg_chrg_atm_vo:            0.000000
##########         desc_VOS_hydrophobic_atm_vo:            0.000000
##########         desc_VOS_hydrophilic_atm_vo:            0.000000
##########           Internal_energy_repulsive:            2.858783

@<TRIPOS>MOLECULE
145
 20 20 1 0 0
SMALL
GASTEIGER


@<TRIPOS>ATOM
      1 O          20.8402    8.8438   40.8734 O.2     1  UNL1       -0.2458
      2 C          21.7189    8.4843   41.6285 C.2     1  UNL1        0.3296
      3 O          21.4662    7.6998   42.6454 O.3     1  UNL1       -0.4775
      4 C          23.1220    8.9407   41.4650 C.2     1  UNL1        0.0229
      5 C          23.8441    9.0914   40.3418 C.2     1  UNL1       -0.0478
      6 C          23.4002    8.8303   38.9545 C.ar    1  UNL1       -0.0246
      7 C          22.6660    7.6804   38.6531 C.ar    1  UNL1       -0.0511
      8 C          23.6983    9.7354   37.9326 C.ar    1  UNL1       -0.0511
      9 C          22.2313    7.4379   37.3502 C.ar    1  UNL1       -0.0196
     10 C          23.2610    9.4950   36.6298 C.ar    1  UNL1       -0.0196
     11 C          22.5242    8.3486   36.3349 C.ar    1  UNL1        0.1169
     12 O          22.0915    8.1272   35.0586 O.3     1  UNL1       -0.5068
     13 H          20.5506    7.3882   42.5863 H       1  UNL1        0.2954
     14 H          23.6324    9.1816   42.3974 H       1  UNL1        0.0689
     15 H          24.8692    9.4504   40.4252 H       1  UNL1        0.0626
     16 H          22.4266    6.9658   39.4370 H       1  UNL1        0.0625
     17 H          24.2691   10.6352   38.1494 H       1  UNL1        0.0625
     18 H          21.6613    6.5387   37.1320 H       1  UNL1        0.0654
     19 H          23.4928   10.2089   35.8411 H       1  UNL1        0.0654
     20 H          22.3901    8.8361   34.4563 H       1  UNL1        0.2921
@<TRIPOS>BOND
     1     1     2    2
     2     2     3    1
     3     2     4    1
     4     4     5    2
     5     5     6    1
     6     6     7   ar
     7     6     8   ar
     8     7     9   ar
     9     8    10   ar
    10     9    11   ar
    11    11    12    1
    12    10    11   ar
    13     3    13    1
    14     4    14    1
    15     5    15    1
    16     7    16    1
    17     8    17    1
    18     9    18    1
    19    10    19    1
    20    12    20    1
@<TRIPOS>SUBSTRUCTURE
     1 UNL1        1 TEMP              0 ****  ****    0 ROOT


##########                                Name:                 146
##########                DOCK_Rotatable_Bonds:                   0
##########                         Heavy_Atoms:                  13
##########                    Molecular_Weight:             180.166
##########                       Formal_Charge:         7.45058e-09
##########                     HBond_Acceptors:                   6
##########                        HBond_Donors:                   1
##########                    Descriptor_Score:           41.507011
##########          Footprint_Similarity_Score:           12.281305
##########                 desc_FPS_vdw_energy:          -25.558800
##########                  desc_FPS_es_energy:           -0.918090
##########              desc_FPS_vdw+es_energy:          -26.476891
##########                  desc_FPS_num_hbond:                   2
##########                    desc_FPS_vdw_fps:           10.213966
##########                     desc_FPS_es_fps:            2.067340
##########                     desc_FPS_hb_fps:            1.414214
##########              desc_FPS_vdw_fp_numres:                 219
##########               desc_FPS_es_fp_numres:                 219
##########               desc_FPS_hb_fp_numres:                 219
##########                 Pharmacophore_Score:           20.000000
##########              desc_FMS_num_match_tot:                   0
##########              desc_FMS_max_match_ref:                  10
##########              desc_FMS_max_match_mol:                   6
##########                 desc_FMS_match_rate:            4.000000
##########                desc_FMS_match_resid:            0.000000
##########    desc_FMS_num_hydrophobic_matched:                   0
##########          desc_FMS_num_donor_matched:                   0
##########       desc_FMS_num_acceptor_matched:                   0
##########       desc_FMS_num_aromatic_matched:                   0
##########       desc_FMS_num_positive_matched:                   0
##########       desc_FMS_num_negative_matched:                   0
##########           desc_FMS_num_ring_matched:                   0
########## Hungarian_Matching_Similarity_Score:            9.225708
##########       desc_HMS_num_unmtchd_hvy_atms:                  22
##########           desc_HMS_num_ref_hvy_atms:                  23
##########        desc_HMS_rmsd_mtchd_hvy_atms:            9.443100
##########               Property_Volume_Score:            0.000000
##########               desc_VOS_geometric_vo:            0.000000
##########                desc_VOS_hvy_atom_vo:            0.000000
##########            desc_VOS_pos_chrg_atm_vo:            0.000000
##########            desc_VOS_neg_chrg_atm_vo:            0.000000
##########         desc_VOS_hydrophobic_atm_vo:            0.000000
##########         desc_VOS_hydrophilic_atm_vo:            0.000000
##########           Internal_energy_repulsive:            3.628105

@<TRIPOS>MOLECULE
146
 21 22 1 0 0
SMALL
GASTEIGER


@<TRIPOS>ATOM
      1 O          23.9562   10.2762   37.8099 O.2     1  UNL1       -0.2462
      2 C          23.3560    9.5592   38.5897 C.ar    1  UNL1        0.3331
      3 N          23.0029    8.2744   38.2682 N.ar    1  UNL1       -0.2622
      4 N          23.0081   10.0092   39.8317 N.ar    1  UNL1       -0.2796
      5 C          22.3341    7.4108   39.0874 C.ar    1  UNL1        0.2820
      6 C          23.3666    7.7484   36.9301 C.3     1  UNL1        0.0196
      7 C          22.3329    9.2425   40.7679 C.ar    1  UNL1        0.1676
      8 C          23.3414   11.3750   40.2737 C.3     1  UNL1        0.0181
      9 O          22.0434    6.2760   38.7549 O.2     1  UNL1       -0.2652
     10 C          22.0005    7.9676   40.4056 C.ar    1  UNL1        0.1488
     11 N          21.8171    8.8845   41.6915 N.ar    1  UNL1       -0.2179
     12 N          21.3774    7.5397   41.5291 N.ar    1  UNL1       -0.3389
     13 C          21.2912    8.4280   42.5621 C.ar    1  UNL1        0.0963
     14 H          23.8777    8.4903   36.3129 H       1  UNL1        0.0458
     15 H          22.4585    7.4331   36.4085 H       1  UNL1        0.0458
     16 H          24.0261    6.8849   37.0517 H       1  UNL1        0.0458
     17 H          23.8346   11.9500   39.4866 H       1  UNL1        0.0458
     18 H          24.0064   11.3184   41.1396 H       1  UNL1        0.0458
     19 H          22.4222   11.8922   40.5623 H       1  UNL1        0.0458
     20 H          21.0006    6.6042   41.5898 H       1  UNL1        0.1670
     21 H          20.8187    8.1795   43.5006 H       1  UNL1        0.1027
@<TRIPOS>BOND
     1     1     2    2
     2     2     3   ar
     3     2     4   ar
     4     3     5   ar
     5     3     6    1
     6     4     7   ar
     7     4     8    1
     8     5     9    2
     9     5    10   ar
    10     7    11   ar
    11    10    12   ar
    12    11    13   ar
    13     7    10   ar
    14    12    13   ar
    15     6    14    1
    16     6    15    1
    17     6    16    1
    18     8    17    1
    19     8    18    1
    20     8    19    1
    21    12    20    1
    22    13    21    1
@<TRIPOS>SUBSTRUCTURE
     1 UNL1        1 TEMP              0 ****  ****    0 ROOT


##########                                Name:                 146
##########                DOCK_Rotatable_Bonds:                   0
##########                         Heavy_Atoms:                  13
##########                    Molecular_Weight:             180.166
##########                       Formal_Charge:         7.45058e-09
##########                     HBond_Acceptors:                   6
##########                        HBond_Donors:                   1
##########                    Descriptor_Score:           41.495316
##########          Footprint_Similarity_Score:           12.268849
##########                 desc_FPS_vdw_energy:          -25.556240
##########                  desc_FPS_es_energy:           -0.916382
##########              desc_FPS_vdw+es_energy:          -26.472622
##########                  desc_FPS_num_hbond:                   2
##########                    desc_FPS_vdw_fps:           10.147763
##########                     desc_FPS_es_fps:            2.121086
##########                     desc_FPS_hb_fps:            1.414214
##########              desc_FPS_vdw_fp_numres:                 219
##########               desc_FPS_es_fp_numres:                 219
##########               desc_FPS_hb_fp_numres:                 219
##########                 Pharmacophore_Score:           20.000000
##########              desc_FMS_num_match_tot:                   0
##########              desc_FMS_max_match_ref:                  10
##########              desc_FMS_max_match_mol:                   6
##########                 desc_FMS_match_rate:            4.000000
##########                desc_FMS_match_resid:            0.000000
##########    desc_FMS_num_hydrophobic_matched:                   0
##########          desc_FMS_num_donor_matched:                   0
##########       desc_FMS_num_acceptor_matched:                   0
##########       desc_FMS_num_aromatic_matched:                   0
##########       desc_FMS_num_positive_matched:                   0
##########       desc_FMS_num_negative_matched:                   0
##########           desc_FMS_num_ring_matched:                   0
########## Hungarian_Matching_Similarity_Score:            9.226466
##########       desc_HMS_num_unmtchd_hvy_atms:                  22
##########           desc_HMS_num_ref_hvy_atms:                  23
##########        desc_HMS_rmsd_mtchd_hvy_atms:            9.443858
##########               Property_Volume_Score:            0.000000
##########               desc_VOS_geometric_vo:            0.000000
##########                desc_VOS_hvy_atom_vo:            0.000000
##########            desc_VOS_pos_chrg_atm_vo:            0.000000
##########            desc_VOS_neg_chrg_atm_vo:            0.000000
##########         desc_VOS_hydrophobic_atm_vo:            0.000000
##########         desc_VOS_hydrophilic_atm_vo:            0.000000
##########           Internal_energy_repulsive:            3.628108

@<TRIPOS>MOLECULE
146
 21 22 1 0 0
SMALL
GASTEIGER


@<TRIPOS>ATOM
      1 O          23.8466   10.3272   37.7670 O.2     1  UNL1       -0.2462
      2 C          23.2829    9.5891   38.5541 C.ar    1  UNL1        0.3331
      3 N          22.9352    8.3054   38.2223 N.ar    1  UNL1       -0.2622
      4 N          22.9723   10.0130   39.8151 N.ar    1  UNL1       -0.2796
      5 C          22.3061    7.4191   39.0486 C.ar    1  UNL1        0.2820
      6 C          23.2591    7.8073   36.8634 C.3     1  UNL1        0.0196
      7 C          22.3396    9.2214   40.7602 C.ar    1  UNL1        0.1676
      8 C          23.3033   11.3753   40.2695 C.3     1  UNL1        0.0181
      9 O          22.0185    6.2864   38.7063 O.2     1  UNL1       -0.2652
     10 C          22.0111    7.9486   40.3871 C.ar    1  UNL1        0.1488
     11 N          21.8606    8.8407   41.6945 N.ar    1  UNL1       -0.2179
     12 N          21.4326    7.4932   41.5236 N.ar    1  UNL1       -0.3389
     13 C          21.3708    8.3624   42.5744 C.ar    1  UNL1        0.0963
     14 H          23.7392    8.5664   36.2423 H       1  UNL1        0.0458
     15 H          22.3377    7.4890   36.3678 H       1  UNL1        0.0458
     16 H          23.9334    6.9507   36.9472 H       1  UNL1        0.0458
     17 H          23.7618   11.9702   39.4761 H       1  UNL1        0.0458
     18 H          23.9985   11.3126   41.1109 H       1  UNL1        0.0458
     19 H          22.3881   11.8752   40.5984 H       1  UNL1        0.0458
     20 H          21.0700    6.5519   41.5806 H       1  UNL1        0.1670
     21 H          20.9342    8.0915   43.5240 H       1  UNL1        0.1027
@<TRIPOS>BOND
     1     1     2    2
     2     2     3   ar
     3     2     4   ar
     4     3     5   ar
     5     3     6    1
     6     4     7   ar
     7     4     8    1
     8     5     9    2
     9     5    10   ar
    10     7    11   ar
    11    10    12   ar
    12    11    13   ar
    13     7    10   ar
    14    12    13   ar
    15     6    14    1
    16     6    15    1
    17     6    16    1
    18     8    17    1
    19     8    18    1
    20     8    19    1
    21    12    20    1
    22    13    21    1
@<TRIPOS>SUBSTRUCTURE
     1 UNL1        1 TEMP              0 ****  ****    0 ROOT


##########                                Name:                 146
##########                DOCK_Rotatable_Bonds:                   0
##########                         Heavy_Atoms:                  13
##########                    Molecular_Weight:             180.166
##########                       Formal_Charge:         7.45058e-09
##########                     HBond_Acceptors:                   6
##########                        HBond_Donors:                   1
##########                    Descriptor_Score:           41.566849
##########          Footprint_Similarity_Score:           12.282616
##########                 desc_FPS_vdw_energy:          -26.009815
##########                  desc_FPS_es_energy:           -0.835658
##########              desc_FPS_vdw+es_energy:          -26.845472
##########                  desc_FPS_num_hbond:                   2
##########                    desc_FPS_vdw_fps:           10.207692
##########                     desc_FPS_es_fps:            2.074924
##########                     desc_FPS_hb_fps:            1.414214
##########              desc_FPS_vdw_fp_numres:                 219
##########               desc_FPS_es_fp_numres:                 219
##########               desc_FPS_hb_fp_numres:                 219
##########                 Pharmacophore_Score:           20.000000
##########              desc_FMS_num_match_tot:                   0
##########              desc_FMS_max_match_ref:                  10
##########              desc_FMS_max_match_mol:                   6
##########                 desc_FMS_match_rate:            4.000000
##########                desc_FMS_match_resid:            0.000000
##########    desc_FMS_num_hydrophobic_matched:                   0
##########          desc_FMS_num_donor_matched:                   0
##########       desc_FMS_num_acceptor_matched:                   0
##########       desc_FMS_num_aromatic_matched:                   0
##########       desc_FMS_num_positive_matched:                   0
##########       desc_FMS_num_negative_matched:                   0
##########           desc_FMS_num_ring_matched:                   0
########## Hungarian_Matching_Similarity_Score:            9.284233
##########       desc_HMS_num_unmtchd_hvy_atms:                  22
##########           desc_HMS_num_ref_hvy_atms:                  23
##########        desc_HMS_rmsd_mtchd_hvy_atms:            9.501625
##########               Property_Volume_Score:            0.000000
##########               desc_VOS_geometric_vo:            0.000000
##########                desc_VOS_hvy_atom_vo:            0.000000
##########            desc_VOS_pos_chrg_atm_vo:            0.000000
##########            desc_VOS_neg_chrg_atm_vo:            0.000000
##########         desc_VOS_hydrophobic_atm_vo:            0.000000
##########         desc_VOS_hydrophilic_atm_vo:            0.000000
##########           Internal_energy_repulsive:            3.627850

@<TRIPOS>MOLECULE
146
 21 22 1 0 0
SMALL
GASTEIGER


@<TRIPOS>ATOM
      1 O          23.9571   10.3330   37.7705 O.2     1  UNL1       -0.2462
      2 C          23.3850    9.5981   38.5546 C.ar    1  UNL1        0.3331
      3 N          23.0705    8.3025   38.2362 N.ar    1  UNL1       -0.2622
      4 N          23.0312   10.0379   39.7986 N.ar    1  UNL1       -0.2796
      5 C          22.4348    7.4189   39.0604 C.ar    1  UNL1        0.2820
      6 C          23.4418    7.7872   36.8961 C.3     1  UNL1        0.0196
      7 C          22.3868    9.2510   40.7397 C.ar    1  UNL1        0.1676
      8 C          23.3241   11.4139   40.2377 C.3     1  UNL1        0.0181
      9 O          22.1779    6.2752   38.7305 O.2     1  UNL1       -0.2652
     10 C          22.0924    7.9659   40.3804 C.ar    1  UNL1        0.1488
     11 N          21.8886    8.8776   41.6669 N.ar    1  UNL1       -0.2179
     12 N          21.4905    7.5195   41.5083 N.ar    1  UNL1       -0.3389
     13 C          21.3831    8.4055   42.5412 C.ar    1  UNL1        0.0963
     14 H          23.9252    8.5443   36.2751 H       1  UNL1        0.0458
     15 H          22.5408    7.4429   36.3807 H       1  UNL1        0.0458
     16 H          24.1291    6.9450   37.0139 H       1  UNL1        0.0458
     17 H          23.7938   12.0035   39.4470 H       1  UNL1        0.0458
     18 H          23.9963   11.3790   41.0991 H       1  UNL1        0.0458
     19 H          22.3910   11.9020   40.5320 H       1  UNL1        0.0458
     20 H          21.1438    6.5726   41.5719 H       1  UNL1        0.1670
     21 H          20.9249    8.1429   43.4830 H       1  UNL1        0.1027
@<TRIPOS>BOND
     1     1     2    2
     2     2     3   ar
     3     2     4   ar
     4     3     5   ar
     5     3     6    1
     6     4     7   ar
     7     4     8    1
     8     5     9    2
     9     5    10   ar
    10     7    11   ar
    11    10    12   ar
    12    11    13   ar
    13     7    10   ar
    14    12    13   ar
    15     6    14    1
    16     6    15    1
    17     6    16    1
    18     8    17    1
    19     8    18    1
    20     8    19    1
    21    12    20    1
    22    13    21    1
@<TRIPOS>SUBSTRUCTURE
     1 UNL1        1 TEMP              0 ****  ****    0 ROOT


##########                                Name:                 147
##########                DOCK_Rotatable_Bonds:                  12
##########                         Heavy_Atoms:                  27
##########                    Molecular_Weight:             368.386
##########                       Formal_Charge:         0.000400066
##########                     HBond_Acceptors:                   6
##########                        HBond_Donors:                   2
##########                    Descriptor_Score:           37.260963
##########          Footprint_Similarity_Score:           11.702777
##########                 desc_FPS_vdw_energy:          -39.950027
##########                  desc_FPS_es_energy:           -1.499099
##########              desc_FPS_vdw+es_energy:          -41.449127
##########                  desc_FPS_num_hbond:                   1
##########                    desc_FPS_vdw_fps:            9.889089
##########                     desc_FPS_es_fps:            1.813688
##########                     desc_FPS_hb_fps:            1.000000
##########              desc_FPS_vdw_fp_numres:                 219
##########               desc_FPS_es_fp_numres:                 219
##########               desc_FPS_hb_fp_numres:                 219
##########                 Pharmacophore_Score:           20.000000
##########              desc_FMS_num_match_tot:                   0
##########              desc_FMS_max_match_ref:                  10
##########              desc_FMS_max_match_mol:                  15
##########                 desc_FMS_match_rate:            4.000000
##########                desc_FMS_match_resid:            0.000000
##########    desc_FMS_num_hydrophobic_matched:                   0
##########          desc_FMS_num_donor_matched:                   0
##########       desc_FMS_num_acceptor_matched:                   0
##########       desc_FMS_num_aromatic_matched:                   0
##########       desc_FMS_num_positive_matched:                   0
##########       desc_FMS_num_negative_matched:                   0
##########           desc_FMS_num_ring_matched:                   0
########## Hungarian_Matching_Similarity_Score:            5.710433
##########       desc_HMS_num_unmtchd_hvy_atms:                  14
##########           desc_HMS_num_ref_hvy_atms:                  23
##########        desc_HMS_rmsd_mtchd_hvy_atms:            7.666954
##########               Property_Volume_Score:            0.152247
##########               desc_VOS_geometric_vo:            0.259746
##########                desc_VOS_hvy_atom_vo:            0.265808
##########            desc_VOS_pos_chrg_atm_vo:            0.077631
##########            desc_VOS_neg_chrg_atm_vo:            0.185937
##########         desc_VOS_hydrophobic_atm_vo:            0.124358
##########         desc_VOS_hydrophilic_atm_vo:            0.000000
##########           Internal_energy_repulsive:            7.719977

@<TRIPOS>MOLECULE
147
 47 48 1 0 0
SMALL
GASTEIGER


@<TRIPOS>ATOM
      1 O          22.0533   15.8709   45.4188 O.2     1  UNL1       -0.2922
      2 C          22.0197   15.0113   44.5616 C.2     1  UNL1        0.1635
      3 C          20.7525   14.6238   43.9013 C.2     1  UNL1       -0.0182
      4 C          23.2460   14.1917   44.2076 C.3     1  UNL1        0.0724
      5 C          19.5176   14.6833   44.4195 C.2     1  UNL1       -0.0512
      6 C          23.4429   14.0100   42.7171 C.2     1  UNL1        0.1635
      7 C          18.2711   14.2916   43.7418 C.ar    1  UNL1       -0.0212
      8 O          23.6639   14.9594   41.9901 O.2     1  UNL1       -0.2922
      9 C          23.2136   12.6508   42.1746 C.2     1  UNL1       -0.0182
     10 C          17.1664   13.8986   44.4987 C.ar    1  UNL1       -0.0092
     11 C          18.1734   14.3663   42.3528 C.ar    1  UNL1       -0.0509
     12 C          23.4237   12.2547   40.9111 C.2     1  UNL1       -0.0512
     13 C          15.9584   13.5859   43.8683 C.ar    1  UNL1        0.1618
     14 C          16.9707   14.0546   41.7192 C.ar    1  UNL1       -0.0160
     15 C          23.2098   10.9154   40.3285 C.ar    1  UNL1       -0.0212
     16 O          14.8220   13.2072   44.5693 O.3     1  UNL1       -0.4914
     17 C          15.8684   13.6709   42.4785 C.ar    1  UNL1        0.1585
     18 C          22.3377   10.0222   40.9529 C.ar    1  UNL1       -0.0092
     19 C          23.8475   10.5473   39.1417 C.ar    1  UNL1       -0.0509
     20 C          14.3535   11.8399   44.6325 C.3     1  UNL1        0.0790
     21 O          14.6832   13.3842   41.8788 O.3     1  UNL1       -0.5033
     22 C          22.0929    8.7654   40.3898 C.ar    1  UNL1        0.1618
     23 C          23.6118    9.2935   38.5811 C.ar    1  UNL1       -0.0160
     24 O          21.2218    7.8441   40.9551 O.3     1  UNL1       -0.4914
     25 C          22.7331    8.4096   39.2025 C.ar    1  UNL1        0.1585
     26 C          21.2506    7.4845   42.3565 C.3     1  UNL1        0.0790
     27 O          22.4772    7.1898   38.6567 O.3     1  UNL1       -0.5033
     28 H          20.8275   14.2393   42.8839 H       1  UNL1        0.0653
     29 H          23.1887   13.2056   44.6744 H       1  UNL1        0.0426
     30 H          24.1264   14.6827   44.6285 H       1  UNL1        0.0426
     31 H          19.3942   15.0472   45.4398 H       1  UNL1        0.0625
     32 H          22.8306   11.9046   42.8705 H       1  UNL1        0.0653
     33 H          17.2598   13.8517   45.5805 H       1  UNL1        0.0661
     34 H          19.0283   14.6832   41.7594 H       1  UNL1        0.0625
     35 H          23.7793   12.9986   40.1986 H       1  UNL1        0.0625
     36 H          16.8905   14.1243   40.6379 H       1  UNL1        0.0655
     37 H          21.8477   10.3226   41.8752 H       1  UNL1        0.0661
     38 H          24.5261   11.2379   38.6469 H       1  UNL1        0.0625
     39 H          13.4484   11.8036   45.2466 H       1  UNL1        0.0660
     40 H          15.1245   11.2094   45.0846 H       1  UNL1        0.0660
     41 H          14.1222   11.4854   43.6237 H       1  UNL1        0.0660
     42 H          14.7712   13.6998   40.9560 H       1  UNL1        0.2923
     43 H          24.1062    9.0096   37.6548 H       1  UNL1        0.0655
     44 H          20.4546    6.7610   42.5524 H       1  UNL1        0.0660
     45 H          21.0875    8.3773   42.9665 H       1  UNL1        0.0660
     46 H          22.2177    7.0350   42.5984 H       1  UNL1        0.0660
     47 H          23.3138    6.6839   38.7228 H       1  UNL1        0.2923
@<TRIPOS>BOND
     1     1     2    2
     2     2     3    1
     3     2     4    1
     4     3     5    2
     5     4     6    1
     6     5     7    1
     7     6     8    2
     8     6     9    1
     9     7    10   ar
    10     7    11   ar
    11     9    12    2
    12    10    13   ar
    13    11    14   ar
    14    12    15    1
    15    13    16    1
    16    13    17   ar
    17    15    18   ar
    18    15    19   ar
    19    16    20    1
    20    17    21    1
    21    18    22   ar
    22    19    23   ar
    23    22    24    1
    24    22    25   ar
    25    24    26    1
    26    25    27    1
    27    14    17   ar
    28    23    25   ar
    29     3    28    1
    30     4    29    1
    31     4    30    1
    32     5    31    1
    33     9    32    1
    34    10    33    1
    35    11    34    1
    36    12    35    1
    37    14    36    1
    38    18    37    1
    39    19    38    1
    40    20    39    1
    41    20    40    1
    42    20    41    1
    43    21    42    1
    44    23    43    1
    45    26    44    1
    46    26    45    1
    47    26    46    1
    48    27    47    1
@<TRIPOS>SUBSTRUCTURE
     1 UNL1        1 TEMP              0 ****  ****    0 ROOT


##########                                Name:                 147
##########                DOCK_Rotatable_Bonds:                  12
##########                         Heavy_Atoms:                  27
##########                    Molecular_Weight:             368.386
##########                       Formal_Charge:         0.000400066
##########                     HBond_Acceptors:                   6
##########                        HBond_Donors:                   2
##########                    Descriptor_Score:           37.178505
##########          Footprint_Similarity_Score:           11.495080
##########                 desc_FPS_vdw_energy:          -40.902103
##########                  desc_FPS_es_energy:           -1.843934
##########              desc_FPS_vdw+es_energy:          -42.746037
##########                  desc_FPS_num_hbond:                   1
##########                    desc_FPS_vdw_fps:            9.725324
##########                     desc_FPS_es_fps:            1.769756
##########                     desc_FPS_hb_fps:            1.000000
##########              desc_FPS_vdw_fp_numres:                 219
##########               desc_FPS_es_fp_numres:                 219
##########               desc_FPS_hb_fp_numres:                 219
##########                 Pharmacophore_Score:           20.000000
##########              desc_FMS_num_match_tot:                   0
##########              desc_FMS_max_match_ref:                  10
##########              desc_FMS_max_match_mol:                  15
##########                 desc_FMS_match_rate:            4.000000
##########                desc_FMS_match_resid:            0.000000
##########    desc_FMS_num_hydrophobic_matched:                   0
##########          desc_FMS_num_donor_matched:                   0
##########       desc_FMS_num_acceptor_matched:                   0
##########       desc_FMS_num_aromatic_matched:                   0
##########       desc_FMS_num_positive_matched:                   0
##########       desc_FMS_num_negative_matched:                   0
##########           desc_FMS_num_ring_matched:                   0
########## Hungarian_Matching_Similarity_Score:            5.822621
##########       desc_HMS_num_unmtchd_hvy_atms:                  14
##########           desc_HMS_num_ref_hvy_atms:                  23
##########        desc_HMS_rmsd_mtchd_hvy_atms:            7.779143
##########               Property_Volume_Score:            0.139195
##########               desc_VOS_geometric_vo:            0.239917
##########                desc_VOS_hvy_atom_vo:            0.247457
##########            desc_VOS_pos_chrg_atm_vo:            0.073081
##########            desc_VOS_neg_chrg_atm_vo:            0.168861
##########         desc_VOS_hydrophobic_atm_vo:            0.105854
##########         desc_VOS_hydrophilic_atm_vo:            0.000000
##########           Internal_energy_repulsive:            8.923996

@<TRIPOS>MOLECULE
147
 47 48 1 0 0
SMALL
GASTEIGER


@<TRIPOS>ATOM
      1 O          22.1684   16.0559   45.4510 O.2     1  UNL1       -0.2922
      2 C          22.2122   15.2537   44.5403 C.2     1  UNL1        0.1635
      3 C          20.9841   14.7902   43.8555 C.2     1  UNL1       -0.0182
      4 C          23.5091   14.5792   44.1351 C.3     1  UNL1        0.0724
      5 C          19.7418   14.7520   44.3577 C.2     1  UNL1       -0.0512
      6 C          23.6541   14.3958   42.6389 C.2     1  UNL1        0.1635
      7 C          18.5347   14.2860   43.6559 C.ar    1  UNL1       -0.0212
      8 O          23.8618   15.3429   41.9049 O.2     1  UNL1       -0.2922
      9 C          23.3911   13.0395   42.1044 C.2     1  UNL1       -0.0182
     10 C          17.4090   13.9110   44.3904 C.ar    1  UNL1       -0.0092
     11 C          18.4940   14.2724   42.2621 C.ar    1  UNL1       -0.0509
     12 C          23.5587   12.6403   40.8355 C.2     1  UNL1       -0.0512
     13 C          16.2366   13.5278   43.7323 C.ar    1  UNL1        0.1618
     14 C          17.3270   13.8903   41.6009 C.ar    1  UNL1       -0.0160
     15 C          23.3102   11.3038   40.2604 C.ar    1  UNL1       -0.0212
     16 O          15.0811   13.1626   44.4089 O.3     1  UNL1       -0.4914
     17 C          16.2032   13.5247   42.3375 C.ar    1  UNL1        0.1585
     18 C          22.4634   10.4138   40.9229 C.ar    1  UNL1       -0.0092
     19 C          23.8895   10.9353   39.0441 C.ar    1  UNL1       -0.0509
     20 C          14.6061   11.7979   44.4789 C.3     1  UNL1        0.0790
     21 O          15.0517   13.1699   41.7092 O.3     1  UNL1       -0.5033
     22 C          22.1853    9.1598   40.3690 C.ar    1  UNL1        0.1618
     23 C          23.6206    9.6843   38.4922 C.ar    1  UNL1       -0.0160
     24 O          21.3366    8.2418   40.9723 O.3     1  UNL1       -0.4914
     25 C          22.7671    8.8036   39.1521 C.ar    1  UNL1        0.1585
     26 C          21.5832    7.6782   42.2822 C.3     1  UNL1        0.0790
     27 O          22.4791    7.5867   38.6160 O.3     1  UNL1       -0.5033
     28 H          21.0989   14.4318   42.8324 H       1  UNL1        0.0653
     29 H          23.5924   13.6017   44.6158 H       1  UNL1        0.0426
     30 H          24.3438   15.1786   44.5056 H       1  UNL1        0.0426
     31 H          19.5801   15.0864   45.3827 H       1  UNL1        0.0625
     32 H          23.0192   12.2986   42.8118 H       1  UNL1        0.0653
     33 H          17.4578   13.9332   45.4759 H       1  UNL1        0.0661
     34 H          19.3652   14.5750   41.6852 H       1  UNL1        0.0625
     35 H          23.9029   13.3793   40.1123 H       1  UNL1        0.0625
     36 H          17.2908   13.8911   40.5151 H       1  UNL1        0.0655
     37 H          22.0189   10.7144   41.8679 H       1  UNL1        0.0661
     38 H          24.5480   11.6235   38.5196 H       1  UNL1        0.0625
     39 H          13.6855   11.7731   45.0699 H       1  UNL1        0.0660
     40 H          15.3630   11.1712   44.9595 H       1  UNL1        0.0660
     41 H          14.3997   11.4301   43.4695 H       1  UNL1        0.0660
     42 H          14.4027   13.0015   42.4228 H       1  UNL1        0.2923
     43 H          24.0695    9.4002   37.5430 H       1  UNL1        0.0655
     44 H          20.7616    7.0034   42.5371 H       1  UNL1        0.0660
     45 H          21.6355    8.4818   43.0220 H       1  UNL1        0.0660
     46 H          22.5223    7.1181   42.2679 H       1  UNL1        0.0660
     47 H          23.3426    7.1579   38.4406 H       1  UNL1        0.2923
@<TRIPOS>BOND
     1     1     2    2
     2     2     3    1
     3     2     4    1
     4     3     5    2
     5     4     6    1
     6     5     7    1
     7     6     8    2
     8     6     9    1
     9     7    10   ar
    10     7    11   ar
    11     9    12    2
    12    10    13   ar
    13    11    14   ar
    14    12    15    1
    15    13    16    1
    16    13    17   ar
    17    15    18   ar
    18    15    19   ar
    19    16    20    1
    20    17    21    1
    21    18    22   ar
    22    19    23   ar
    23    22    24    1
    24    22    25   ar
    25    24    26    1
    26    25    27    1
    27    14    17   ar
    28    23    25   ar
    29     3    28    1
    30     4    29    1
    31     4    30    1
    32     5    31    1
    33     9    32    1
    34    10    33    1
    35    11    34    1
    36    12    35    1
    37    14    36    1
    38    18    37    1
    39    19    38    1
    40    20    39    1
    41    20    40    1
    42    20    41    1
    43    21    42    1
    44    23    43    1
    45    26    44    1
    46    26    45    1
    47    26    46    1
    48    27    47    1
@<TRIPOS>SUBSTRUCTURE
     1 UNL1        1 TEMP              0 ****  ****    0 ROOT


##########                                Name:                 147
##########                DOCK_Rotatable_Bonds:                  12
##########                         Heavy_Atoms:                  27
##########                    Molecular_Weight:             368.386
##########                       Formal_Charge:         0.000400066
##########                     HBond_Acceptors:                   6
##########                        HBond_Donors:                   2
##########                    Descriptor_Score:           36.157406
##########          Footprint_Similarity_Score:           11.002094
##########                 desc_FPS_vdw_energy:          -37.895443
##########                  desc_FPS_es_energy:           -0.597603
##########              desc_FPS_vdw+es_energy:          -38.493046
##########                  desc_FPS_num_hbond:                   0
##########                    desc_FPS_vdw_fps:            8.966927
##########                     desc_FPS_es_fps:            2.035168
##########                     desc_FPS_hb_fps:            0.000000
##########              desc_FPS_vdw_fp_numres:                 219
##########               desc_FPS_es_fp_numres:                 219
##########               desc_FPS_hb_fp_numres:                 219
##########                 Pharmacophore_Score:           20.000000
##########              desc_FMS_num_match_tot:                   0
##########              desc_FMS_max_match_ref:                  10
##########              desc_FMS_max_match_mol:                  15
##########                 desc_FMS_match_rate:            4.000000
##########                desc_FMS_match_resid:            0.000000
##########    desc_FMS_num_hydrophobic_matched:                   0
##########          desc_FMS_num_donor_matched:                   0
##########       desc_FMS_num_acceptor_matched:                   0
##########       desc_FMS_num_aromatic_matched:                   0
##########       desc_FMS_num_positive_matched:                   0
##########       desc_FMS_num_negative_matched:                   0
##########           desc_FMS_num_ring_matched:                   0
########## Hungarian_Matching_Similarity_Score:            5.269516
##########       desc_HMS_num_unmtchd_hvy_atms:                  14
##########           desc_HMS_num_ref_hvy_atms:                  23
##########        desc_HMS_rmsd_mtchd_hvy_atms:            7.226038
##########               Property_Volume_Score:            0.114204
##########               desc_VOS_geometric_vo:            0.221173
##########                desc_VOS_hvy_atom_vo:            0.195620
##########            desc_VOS_pos_chrg_atm_vo:            0.094557
##########            desc_VOS_neg_chrg_atm_vo:            0.117985
##########         desc_VOS_hydrophobic_atm_vo:            0.055891
##########         desc_VOS_hydrophilic_atm_vo:            0.000000
##########           Internal_energy_repulsive:            6.109510

@<TRIPOS>MOLECULE
147
 47 48 1 0 0
SMALL
GASTEIGER


@<TRIPOS>ATOM
      1 O          21.6508   13.9925   45.8637 O.2     1  UNL1       -0.2922
      2 C          21.1900   14.2002   44.7595 C.2     1  UNL1        0.1635
      3 C          19.7380   14.4001   44.5502 C.2     1  UNL1       -0.0182
      4 C          22.0517   14.1380   43.5126 C.3     1  UNL1        0.0724
      5 C          18.9875   15.4169   44.9972 C.2     1  UNL1       -0.0512
      6 C          22.9775   12.9402   43.4758 C.2     1  UNL1        0.1635
      7 C          17.5431   15.5938   44.7756 C.ar    1  UNL1       -0.0212
      8 O          23.8812   12.8171   44.2802 O.2     1  UNL1       -0.2922
      9 C          22.8177   12.0082   42.3356 C.2     1  UNL1       -0.0182
     10 C          16.7251   14.4740   44.6193 C.ar    1  UNL1       -0.0092
     11 C          16.9834   16.8710   44.7782 C.ar    1  UNL1       -0.0509
     12 C          22.8097   10.6691   42.4003 C.2     1  UNL1       -0.0512
     13 C          15.3435   14.6286   44.4720 C.ar    1  UNL1        0.1618
     14 C          15.6058   17.0304   44.6309 C.ar    1  UNL1       -0.0160
     15 C          22.6539    9.7043   41.2940 C.ar    1  UNL1       -0.0212
     16 O          14.4786   13.5522   44.3314 O.3     1  UNL1       -0.4914
     17 C          14.7920   15.9101   44.4834 C.ar    1  UNL1        0.1585
     18 C          23.0613   10.0583   40.0069 C.ar    1  UNL1       -0.0092
     19 C          22.1326    8.4304   41.5311 C.ar    1  UNL1       -0.0509
     20 C          14.6485   12.5307   43.3212 C.3     1  UNL1        0.0790
     21 O          13.4456   16.0465   44.3598 O.3     1  UNL1       -0.5033
     22 C          22.9588    9.1397   38.9569 C.ar    1  UNL1        0.1618
     23 C          22.0222    7.5146   40.4865 C.ar    1  UNL1       -0.0160
     24 O          23.3654    9.4288   37.6615 O.3     1  UNL1       -0.4914
     25 C          22.4394    7.8691   39.2058 C.ar    1  UNL1        0.1585
     26 C          24.2630   10.5169   37.3382 C.3     1  UNL1        0.0790
     27 O          22.3567    6.9792   38.1800 O.3     1  UNL1       -0.5033
     28 H          19.2154   13.6344   43.9766 H       1  UNL1        0.0653
     29 H          22.6526   15.0460   43.4235 H       1  UNL1        0.0426
     30 H          21.3974   14.1127   42.6382 H       1  UNL1        0.0426
     31 H          19.4634   16.1995   45.5885 H       1  UNL1        0.0625
     32 H          22.7026   12.4572   41.3493 H       1  UNL1        0.0653
     33 H          17.1786   13.4863   44.6255 H       1  UNL1        0.0661
     34 H          17.6155   17.7463   44.9113 H       1  UNL1        0.0625
     35 H          22.9525   10.2073   43.3770 H       1  UNL1        0.0625
     36 H          15.1677   18.0246   44.6449 H       1  UNL1        0.0655
     37 H          23.4660   11.0525   39.8374 H       1  UNL1        0.0661
     38 H          21.8156    8.1450   42.5312 H       1  UNL1        0.0625
     39 H          13.8443   11.7954   43.4222 H       1  UNL1        0.0660
     40 H          15.6135   12.0348   43.4608 H       1  UNL1        0.0660
     41 H          14.6009   12.9868   42.3280 H       1  UNL1        0.0660
     42 H          13.0840   15.9236   45.2615 H       1  UNL1        0.2923
     43 H          21.6196    6.5216   40.6733 H       1  UNL1        0.0655
     44 H          24.4427   10.5184   36.2597 H       1  UNL1        0.0660
     45 H          25.2116   10.3768   37.8638 H       1  UNL1        0.0660
     46 H          23.8066   11.4663   37.6318 H       1  UNL1        0.0660
     47 H          22.9983    7.2849   37.5053 H       1  UNL1        0.2923
@<TRIPOS>BOND
     1     1     2    2
     2     2     3    1
     3     2     4    1
     4     3     5    2
     5     4     6    1
     6     5     7    1
     7     6     8    2
     8     6     9    1
     9     7    10   ar
    10     7    11   ar
    11     9    12    2
    12    10    13   ar
    13    11    14   ar
    14    12    15    1
    15    13    16    1
    16    13    17   ar
    17    15    18   ar
    18    15    19   ar
    19    16    20    1
    20    17    21    1
    21    18    22   ar
    22    19    23   ar
    23    22    24    1
    24    22    25   ar
    25    24    26    1
    26    25    27    1
    27    14    17   ar
    28    23    25   ar
    29     3    28    1
    30     4    29    1
    31     4    30    1
    32     5    31    1
    33     9    32    1
    34    10    33    1
    35    11    34    1
    36    12    35    1
    37    14    36    1
    38    18    37    1
    39    19    38    1
    40    20    39    1
    41    20    40    1
    42    20    41    1
    43    21    42    1
    44    23    43    1
    45    26    44    1
    46    26    45    1
    47    26    46    1
    48    27    47    1
@<TRIPOS>SUBSTRUCTURE
     1 UNL1        1 TEMP              0 ****  ****    0 ROOT


##########                                Name:                 148
##########                DOCK_Rotatable_Bonds:                  12
##########                         Heavy_Atoms:                  33
##########                    Molecular_Weight:             464.382
##########                       Formal_Charge:         9.98974e-05
##########                     HBond_Acceptors:                  12
##########                        HBond_Donors:                   8
##########                    Descriptor_Score:           15.865061
##########          Footprint_Similarity_Score:            6.384196
##########                 desc_FPS_vdw_energy:          -37.457249
##########                  desc_FPS_es_energy:           -3.946439
##########              desc_FPS_vdw+es_energy:          -41.403687
##########                  desc_FPS_num_hbond:                   3
##########                    desc_FPS_vdw_fps:            4.501759
##########                     desc_FPS_es_fps:            1.882437
##########                     desc_FPS_hb_fps:            1.732051
##########              desc_FPS_vdw_fp_numres:                 219
##########               desc_FPS_es_fp_numres:                 219
##########               desc_FPS_hb_fp_numres:                 219
##########                 Pharmacophore_Score:            7.456246
##########              desc_FMS_num_match_tot:                   1
##########              desc_FMS_max_match_ref:                  10
##########              desc_FMS_max_match_mol:                  24
##########                 desc_FMS_match_rate:            0.900000
##########                desc_FMS_match_resid:            2.956247
##########    desc_FMS_num_hydrophobic_matched:                   0
##########          desc_FMS_num_donor_matched:                   1
##########       desc_FMS_num_acceptor_matched:                   0
##########       desc_FMS_num_aromatic_matched:                   0
##########       desc_FMS_num_positive_matched:                   0
##########       desc_FMS_num_negative_matched:                   0
##########           desc_FMS_num_ring_matched:                   0
########## Hungarian_Matching_Similarity_Score:            2.283380
##########       desc_HMS_num_unmtchd_hvy_atms:                  20
##########           desc_HMS_num_ref_hvy_atms:                  23
##########        desc_HMS_rmsd_mtchd_hvy_atms:            2.935554
##########               Property_Volume_Score:            0.258762
##########               desc_VOS_geometric_vo:            0.471701
##########                desc_VOS_hvy_atom_vo:            0.436171
##########            desc_VOS_pos_chrg_atm_vo:            0.167424
##########            desc_VOS_neg_chrg_atm_vo:            0.179241
##########         desc_VOS_hydrophobic_atm_vo:            0.205460
##########         desc_VOS_hydrophilic_atm_vo:            0.092576
##########           Internal_energy_repulsive:           12.765250

@<TRIPOS>MOLECULE
148
 53 56 1 0 0
SMALL
GASTEIGER


@<TRIPOS>ATOM
      1 O          11.0610   11.0309   43.0132 O.2     1  UNL1       -0.2830
      2 C          11.5040   12.1601   42.9180 C.ar    1  UNL1        0.2382
      3 C          10.7499   13.3497   42.4064 C.ar    1  UNL1        0.2138
      4 C          12.8574   12.5000   43.3859 C.ar    1  UNL1        0.1092
      5 O           9.3906   13.2895   42.1109 O.3     1  UNL1       -0.4532
      6 C          11.2490   14.3645   42.3714 C.ar    1  UNL1        0.1810
      7 C          13.2130   13.8224   43.2609 C.ar    1  UNL1        0.1465
      8 C          13.7903   11.5987   44.0247 C.ar    1  UNL1        0.1348
      9 C           8.4324   12.5421   42.9226 C.3     1  UNL1        0.2311
     10 O          12.2787   14.6829   42.7064 O.2     1  UNL1       -0.4507
     11 C          10.9273   15.8167   42.1156 C.ar    1  UNL1        0.0247
     12 C          14.4511   14.2956   43.8396 C.ar    1  UNL1        0.0231
     13 O          13.4647   10.2809   44.1263 O.3     1  UNL1       -0.5058
     14 C          14.9807   12.0614   44.5747 C.ar    1  UNL1        0.0223
     15 O           7.3056   12.0877   42.1316 O.3     1  UNL1       -0.3313
     16 C           7.9107   13.4054   44.0824 C.3     1  UNL1        0.1454
     17 C          11.0572   16.7722   43.1437 C.ar    1  UNL1       -0.0057
     18 C          10.5202   16.2517   40.8374 C.ar    1  UNL1       -0.0473
     19 C          15.3110   13.4097   44.4942 C.ar    1  UNL1        0.1239
     20 C           6.4972   13.1299   41.5269 C.3     1  UNL1        0.1140
     21 O           9.0194   13.9010   44.8310 O.3     1  UNL1       -0.3829
     22 C           7.0688   14.5743   43.5411 C.3     1  UNL1        0.1152
     23 C          10.8534   18.1249   42.8741 C.ar    1  UNL1        0.1589
     24 C          10.3108   17.6094   40.5855 C.ar    1  UNL1       -0.0159
     25 O          16.4768   13.8321   45.0678 O.3     1  UNL1       -0.5065
     26 C           5.9205   14.0633   42.6297 C.3     1  UNL1        0.1120
     27 C           5.4197   12.4380   40.6643 C.3     1  UNL1        0.0731
     28 O           6.5520   15.3087   44.6492 O.3     1  UNL1       -0.3864
     29 O          11.0168   19.0612   43.8503 O.3     1  UNL1       -0.5033
     30 C          10.4999   18.5461   41.5987 C.ar    1  UNL1        0.1583
     31 O           4.8883   13.4158   43.3977 O.3     1  UNL1       -0.3865
     32 O           4.7143   13.3949   39.8732 O.3     1  UNL1       -0.3924
     33 O          10.3657   19.8840   41.3701 O.3     1  UNL1       -0.5033
     34 H           8.9288   11.6692   43.3671 H       1  UNL1        0.1084
     35 H          14.6961   15.3525   43.7656 H       1  UNL1        0.0691
     36 H          14.2980    9.7978   44.3293 H       1  UNL1        0.2922
     37 H          15.6510   11.3669   45.0774 H       1  UNL1        0.0691
     38 H           7.2931   12.7836   44.7367 H       1  UNL1        0.0683
     39 H          11.3578   16.4616   44.1411 H       1  UNL1        0.0662
     40 H          10.3966   15.5377   40.0268 H       1  UNL1        0.0626
     41 H           7.1415   13.7190   40.8669 H       1  UNL1        0.0647
     42 H           8.6469   14.3305   45.6176 H       1  UNL1        0.2102
     43 H           7.7110   15.2330   42.9492 H       1  UNL1        0.0648
     44 H          10.0219   17.9381   39.5902 H       1  UNL1        0.0655
     45 H          17.1797   13.1665   44.9886 H       1  UNL1        0.2921
     46 H           5.4719   14.9295   42.1349 H       1  UNL1        0.0647
     47 H           4.7142   11.8964   41.3006 H       1  UNL1        0.0584
     48 H           5.9061   11.7189   39.9996 H       1  UNL1        0.0584
     49 H           6.1186   16.0922   44.2892 H       1  UNL1        0.2100
     50 H          10.5872   19.8793   43.5673 H       1  UNL1        0.2923
     51 H           5.2648   12.7271   43.9761 H       1  UNL1        0.2100
     52 H           5.3516   13.7991   39.2552 H       1  UNL1        0.2095
     53 H          10.1135   19.9863   40.4216 H       1  UNL1        0.2923
@<TRIPOS>BOND
     1     1     2    2
     2     2     3   ar
     3     2     4   ar
     4     3     5    1
     5     3     6   ar
     6     4     7   ar
     7     4     8   ar
     8     5     9    1
     9     6    10   ar
    10     6    11    1
    11     7    12   ar
    12     8    13    1
    13     8    14   ar
    14     9    15    1
    15     9    16    1
    16    11    17   ar
    17    11    18   ar
    18    12    19   ar
    19    15    20    1
    20    16    21    1
    21    16    22    1
    22    17    23   ar
    23    18    24   ar
    24    19    25    1
    25    20    26    1
    26    20    27    1
    27    22    28    1
    28    23    29    1
    29    23    30   ar
    30    26    31    1
    31    27    32    1
    32    30    33    1
    33     7    10   ar
    34    14    19   ar
    35    22    26    1
    36    24    30   ar
    37     9    34    1
    38    12    35    1
    39    13    36    1
    40    14    37    1
    41    16    38    1
    42    17    39    1
    43    18    40    1
    44    20    41    1
    45    21    42    1
    46    22    43    1
    47    24    44    1
    48    25    45    1
    49    26    46    1
    50    27    47    1
    51    27    48    1
    52    28    49    1
    53    29    50    1
    54    31    51    1
    55    32    52    1
    56    33    53    1
@<TRIPOS>SUBSTRUCTURE
     1 UNL1        1 TEMP              0 ****  ****    0 ROOT


##########                                Name:                 148
##########                DOCK_Rotatable_Bonds:                  12
##########                         Heavy_Atoms:                  33
##########                    Molecular_Weight:             464.382
##########                       Formal_Charge:         9.98974e-05
##########                     HBond_Acceptors:                  12
##########                        HBond_Donors:                   8
##########                    Descriptor_Score:           13.775233
##########          Footprint_Similarity_Score:            6.527290
##########                 desc_FPS_vdw_energy:          -38.004139
##########                  desc_FPS_es_energy:           -3.504553
##########              desc_FPS_vdw+es_energy:          -41.508690
##########                  desc_FPS_num_hbond:                   3
##########                    desc_FPS_vdw_fps:            4.844497
##########                     desc_FPS_es_fps:            1.682793
##########                     desc_FPS_hb_fps:            1.732051
##########              desc_FPS_vdw_fp_numres:                 219
##########               desc_FPS_es_fp_numres:                 219
##########               desc_FPS_hb_fp_numres:                 219
##########                 Pharmacophore_Score:            5.166302
##########              desc_FMS_num_match_tot:                   1
##########              desc_FMS_max_match_ref:                  10
##########              desc_FMS_max_match_mol:                  24
##########                 desc_FMS_match_rate:            0.900000
##########                desc_FMS_match_resid:            0.666302
##########    desc_FMS_num_hydrophobic_matched:                   0
##########          desc_FMS_num_donor_matched:                   1
##########       desc_FMS_num_acceptor_matched:                   0
##########       desc_FMS_num_aromatic_matched:                   0
##########       desc_FMS_num_positive_matched:                   0
##########       desc_FMS_num_negative_matched:                   0
##########           desc_FMS_num_ring_matched:                   0
########## Hungarian_Matching_Similarity_Score:            2.339401
##########       desc_HMS_num_unmtchd_hvy_atms:                  20
##########           desc_HMS_num_ref_hvy_atms:                  23
##########        desc_HMS_rmsd_mtchd_hvy_atms:            2.991575
##########               Property_Volume_Score:            0.257760
##########               desc_VOS_geometric_vo:            0.459178
##########                desc_VOS_hvy_atom_vo:            0.422169
##########            desc_VOS_pos_chrg_atm_vo:            0.162019
##########            desc_VOS_neg_chrg_atm_vo:            0.187056
##########         desc_VOS_hydrophobic_atm_vo:            0.217931
##########         desc_VOS_hydrophilic_atm_vo:            0.098206
##########           Internal_energy_repulsive:           12.676877

@<TRIPOS>MOLECULE
148
 53 56 1 0 0
SMALL
GASTEIGER


@<TRIPOS>ATOM
      1 O          10.8335   10.9104   42.8987 O.2     1  UNL1       -0.2830
      2 C          11.2907   12.0360   42.8309 C.ar    1  UNL1        0.2382
      3 C          10.5597   13.2425   42.3256 C.ar    1  UNL1        0.2138
      4 C          12.6387   12.3526   43.3298 C.ar    1  UNL1        0.1092
      5 O           9.2056   13.2028   42.0037 O.3     1  UNL1       -0.4532
      6 C          11.0705   14.2519   42.3171 C.ar    1  UNL1        0.1810
      7 C          13.0112   13.6728   43.2339 C.ar    1  UNL1        0.1465
      8 C          13.5494   11.4301   43.9705 C.ar    1  UNL1        0.1348
      9 C           8.2199   12.4737   42.7991 C.3     1  UNL1        0.2311
     10 O          12.0971   14.5530   42.6767 O.2     1  UNL1       -0.4507
     11 C          10.7698   15.7118   42.0800 C.ar    1  UNL1        0.0247
     12 C          14.2433   14.1220   43.8436 C.ar    1  UNL1        0.0231
     13 O          13.2073   10.1146   44.0437 O.3     1  UNL1       -0.5058
     14 C          14.7342   11.8699   44.5504 C.ar    1  UNL1        0.0223
     15 O           7.0573   12.1179   42.0094 O.3     1  UNL1       -0.3313
     16 C           7.7654   13.3117   44.0048 C.3     1  UNL1        0.1454
     17 C          10.4588   16.1795   40.7871 C.ar    1  UNL1       -0.0057
     18 C          10.7640   16.6308   43.1496 C.ar    1  UNL1       -0.0473
     19 C          15.0808   13.2156   44.4991 C.ar    1  UNL1        0.1239
     20 C           6.2991   13.2291   41.4656 C.3     1  UNL1        0.1140
     21 O           8.9116   13.7115   44.7542 O.3     1  UNL1       -0.3829
     22 C           6.9817   14.5482   43.5305 C.3     1  UNL1        0.1152
     23 C          10.0863   17.5089   40.5928 C.ar    1  UNL1        0.1589
     24 C          10.3976   17.9616   42.9371 C.ar    1  UNL1       -0.0159
     25 O          16.2402   13.6150   45.1015 O.3     1  UNL1       -0.5065
     26 C           5.7927   14.1426   42.6185 C.3     1  UNL1        0.1120
     27 C           5.1712   12.6368   40.5931 C.3     1  UNL1        0.0731
     28 O           6.5241   15.2597   44.6788 O.3     1  UNL1       -0.3864
     29 O           9.7435   17.9615   39.3542 O.3     1  UNL1       -0.5033
     30 C          10.0374   18.3930   41.6628 C.ar    1  UNL1        0.1583
     31 O           4.7380   13.5192   43.3759 O.3     1  UNL1       -0.3865
     32 O           4.4863   13.6694   39.8833 O.3     1  UNL1       -0.3924
     33 O           9.6140   19.6690   41.4327 O.3     1  UNL1       -0.5033
     34 H           8.6737   11.5558   43.1959 H       1  UNL1        0.1084
     35 H          14.5014   15.1771   43.7921 H       1  UNL1        0.0691
     36 H          13.1023    9.9016   44.9989 H       1  UNL1        0.2922
     37 H          15.3872   11.1595   45.0538 H       1  UNL1        0.0691
     38 H           7.1243   12.6962   44.6423 H       1  UNL1        0.0683
     39 H          10.4680   15.4943   39.9433 H       1  UNL1        0.0662
     40 H          11.0135   16.3048   44.1564 H       1  UNL1        0.0626
     41 H           6.9648   13.8107   40.8205 H       1  UNL1        0.0647
     42 H           9.3574   12.8938   45.0272 H       1  UNL1        0.2102
     43 H           7.6504   15.1963   42.9565 H       1  UNL1        0.0648
     44 H          10.3713   18.6570   43.7725 H       1  UNL1        0.0655
     45 H          16.8755   12.8846   45.1813 H       1  UNL1        0.2921
     46 H           5.3854   15.0534   42.1703 H       1  UNL1        0.0647
     47 H           4.4604   12.0852   41.2147 H       1  UNL1        0.0584
     48 H           5.6095   11.9420   39.8717 H       1  UNL1        0.0584
     49 H           5.9889   15.9959   44.3582 H       1  UNL1        0.2100
     50 H           9.7102   18.9270   39.3774 H       1  UNL1        0.2923
     51 H           3.9802   13.3004   42.8028 H       1  UNL1        0.2100
     52 H           5.1378   14.1266   39.3194 H       1  UNL1        0.2095
     53 H           9.6236   20.1330   42.3035 H       1  UNL1        0.2923
@<TRIPOS>BOND
     1     1     2    2
     2     2     3   ar
     3     2     4   ar
     4     3     5    1
     5     3     6   ar
     6     4     7   ar
     7     4     8   ar
     8     5     9    1
     9     6    10   ar
    10     6    11    1
    11     7    12   ar
    12     8    13    1
    13     8    14   ar
    14     9    15    1
    15     9    16    1
    16    11    17   ar
    17    11    18   ar
    18    12    19   ar
    19    15    20    1
    20    16    21    1
    21    16    22    1
    22    17    23   ar
    23    18    24   ar
    24    19    25    1
    25    20    26    1
    26    20    27    1
    27    22    28    1
    28    23    29    1
    29    23    30   ar
    30    26    31    1
    31    27    32    1
    32    30    33    1
    33     7    10   ar
    34    14    19   ar
    35    22    26    1
    36    24    30   ar
    37     9    34    1
    38    12    35    1
    39    13    36    1
    40    14    37    1
    41    16    38    1
    42    17    39    1
    43    18    40    1
    44    20    41    1
    45    21    42    1
    46    22    43    1
    47    24    44    1
    48    25    45    1
    49    26    46    1
    50    27    47    1
    51    27    48    1
    52    28    49    1
    53    29    50    1
    54    31    51    1
    55    32    52    1
    56    33    53    1
@<TRIPOS>SUBSTRUCTURE
     1 UNL1        1 TEMP              0 ****  ****    0 ROOT


##########                                Name:                 148
##########                DOCK_Rotatable_Bonds:                  12
##########                         Heavy_Atoms:                  33
##########                    Molecular_Weight:             464.382
##########                       Formal_Charge:         9.98974e-05
##########                     HBond_Acceptors:                  12
##########                        HBond_Donors:                   8
##########                    Descriptor_Score:           30.354321
##########          Footprint_Similarity_Score:            8.358662
##########                 desc_FPS_vdw_energy:          -31.492596
##########                  desc_FPS_es_energy:           -5.159119
##########              desc_FPS_vdw+es_energy:          -36.651714
##########                  desc_FPS_num_hbond:                   4
##########                    desc_FPS_vdw_fps:            5.889559
##########                     desc_FPS_es_fps:            2.469102
##########                     desc_FPS_hb_fps:            2.449490
##########              desc_FPS_vdw_fp_numres:                 219
##########               desc_FPS_es_fp_numres:                 219
##########               desc_FPS_hb_fp_numres:                 219
##########                 Pharmacophore_Score:           20.000000
##########              desc_FMS_num_match_tot:                   0
##########              desc_FMS_max_match_ref:                  10
##########              desc_FMS_max_match_mol:                  24
##########                 desc_FMS_match_rate:            4.000000
##########                desc_FMS_match_resid:            0.000000
##########    desc_FMS_num_hydrophobic_matched:                   0
##########          desc_FMS_num_donor_matched:                   0
##########       desc_FMS_num_acceptor_matched:                   0
##########       desc_FMS_num_aromatic_matched:                   0
##########       desc_FMS_num_positive_matched:                   0
##########       desc_FMS_num_negative_matched:                   0
##########           desc_FMS_num_ring_matched:                   0
########## Hungarian_Matching_Similarity_Score:            2.262427
##########       desc_HMS_num_unmtchd_hvy_atms:                  20
##########           desc_HMS_num_ref_hvy_atms:                  23
##########        desc_HMS_rmsd_mtchd_hvy_atms:            2.914601
##########               Property_Volume_Score:            0.266767
##########               desc_VOS_geometric_vo:            0.491919
##########                desc_VOS_hvy_atom_vo:            0.458766
##########            desc_VOS_pos_chrg_atm_vo:            0.165660
##########            desc_VOS_neg_chrg_atm_vo:            0.190159
##########         desc_VOS_hydrophobic_atm_vo:            0.206613
##########         desc_VOS_hydrophilic_atm_vo:            0.087487
##########           Internal_energy_repulsive:           11.343712

@<TRIPOS>MOLECULE
148
 53 56 1 0 0
SMALL
GASTEIGER


@<TRIPOS>ATOM
      1 O          11.4023   11.0862   43.0301 O.2     1  UNL1       -0.2830
      2 C          11.8421   12.2160   42.9275 C.ar    1  UNL1        0.2382
      3 C          11.0830   13.4012   42.4134 C.ar    1  UNL1        0.2138
      4 C          13.1966   12.5615   43.3882 C.ar    1  UNL1        0.1092
      5 O           9.7226   13.3362   42.1237 O.3     1  UNL1       -0.4532
      6 C          11.5793   14.4170   42.3714 C.ar    1  UNL1        0.1810
      7 C          13.5484   13.8842   43.2554 C.ar    1  UNL1        0.1465
      8 C          14.1344   11.6657   44.0274 C.ar    1  UNL1        0.1348
      9 C           8.7517   12.6903   43.0046 C.3     1  UNL1        0.2311
     10 O          12.6096   14.7397   42.7006 O.2     1  UNL1       -0.4507
     11 C          11.2530   15.8672   42.1099 C.ar    1  UNL1        0.0247
     12 C          14.7876   14.3632   43.8266 C.ar    1  UNL1        0.0231
     13 O          13.8125   10.3475   44.1368 O.3     1  UNL1       -0.5058
     14 C          15.3259   12.1339   44.5703 C.ar    1  UNL1        0.0223
     15 O           7.6430   12.1322   42.2556 O.3     1  UNL1       -0.3313
     16 C           8.2032   13.6890   44.0362 C.3     1  UNL1        0.1454
     17 C          11.3833   16.8278   43.1332 C.ar    1  UNL1       -0.0057
     18 C          10.8410   16.2952   40.8309 C.ar    1  UNL1       -0.0473
     19 C          15.6524   13.4826   44.4820 C.ar    1  UNL1        0.1239
     20 C           6.8422   13.0844   41.5090 C.3     1  UNL1        0.1140
     21 O           9.2945   14.2825   44.7376 O.3     1  UNL1       -0.3829
     22 C           7.3670   14.7746   43.3359 C.3     1  UNL1        0.1152
     23 C          11.1751   18.1786   42.8580 C.ar    1  UNL1        0.1589
     24 C          10.6272   17.6512   40.5734 C.ar    1  UNL1       -0.0159
     25 O          16.8196   13.9107   45.0487 O.3     1  UNL1       -0.5065
     26 C           6.2395   14.1451   42.4743 C.3     1  UNL1        0.1120
     27 C           5.7851   12.2820   40.7199 C.3     1  UNL1        0.0731
     28 O           6.8250   15.6390   44.3326 O.3     1  UNL1       -0.3864
     29 O          11.3387   19.1199   43.8295 O.3     1  UNL1       -0.5033
     30 C          10.8167   18.5930   41.5818 C.ar    1  UNL1        0.1583
     31 O           5.1950   13.5922   43.2978 O.3     1  UNL1       -0.3865
     32 O           6.4110   11.3156   39.8752 O.3     1  UNL1       -0.3924
     33 O          10.6782   19.9295   41.3474 O.3     1  UNL1       -0.5033
     34 H           9.2431   11.8837   43.5648 H       1  UNL1        0.1084
     35 H          15.0298   15.4203   43.7465 H       1  UNL1        0.0691
     36 H          14.6032    9.8922   44.5062 H       1  UNL1        0.2922
     37 H          16.0000   11.4435   45.0736 H       1  UNL1        0.0691
     38 H           7.5754   13.1501   44.7516 H       1  UNL1        0.0683
     39 H          11.6876   16.5225   44.1311 H       1  UNL1        0.0662
     40 H          10.7170   15.5772   40.0239 H       1  UNL1        0.0626
     41 H           7.4968   13.5902   40.7926 H       1  UNL1        0.0647
     42 H           8.9032   14.8367   45.4316 H       1  UNL1        0.2102
     43 H           8.0180   15.3580   42.6783 H       1  UNL1        0.0648
     44 H          10.3345   17.9746   39.5775 H       1  UNL1        0.0655
     45 H          17.5014   13.2192   45.0364 H       1  UNL1        0.2921
     46 H           5.7969   14.9390   41.8658 H       1  UNL1        0.0647
     47 H           5.1711   12.9552   40.1151 H       1  UNL1        0.0584
     48 H           5.1328   11.7637   41.4279 H       1  UNL1        0.0584
     49 H           6.3756   16.3558   43.8685 H       1  UNL1        0.2100
     50 H          11.1656   19.9903   43.4472 H       1  UNL1        0.2923
     51 H           5.5216   12.8282   43.8080 H       1  UNL1        0.2100
     52 H           5.7075   10.8267   39.4087 H       1  UNL1        0.2095
     53 H          10.4518   20.0286   40.3921 H       1  UNL1        0.2923
@<TRIPOS>BOND
     1     1     2    2
     2     2     3   ar
     3     2     4   ar
     4     3     5    1
     5     3     6   ar
     6     4     7   ar
     7     4     8   ar
     8     5     9    1
     9     6    10   ar
    10     6    11    1
    11     7    12   ar
    12     8    13    1
    13     8    14   ar
    14     9    15    1
    15     9    16    1
    16    11    17   ar
    17    11    18   ar
    18    12    19   ar
    19    15    20    1
    20    16    21    1
    21    16    22    1
    22    17    23   ar
    23    18    24   ar
    24    19    25    1
    25    20    26    1
    26    20    27    1
    27    22    28    1
    28    23    29    1
    29    23    30   ar
    30    26    31    1
    31    27    32    1
    32    30    33    1
    33     7    10   ar
    34    14    19   ar
    35    22    26    1
    36    24    30   ar
    37     9    34    1
    38    12    35    1
    39    13    36    1
    40    14    37    1
    41    16    38    1
    42    17    39    1
    43    18    40    1
    44    20    41    1
    45    21    42    1
    46    22    43    1
    47    24    44    1
    48    25    45    1
    49    26    46    1
    50    27    47    1
    51    27    48    1
    52    28    49    1
    53    29    50    1
    54    31    51    1
    55    32    52    1
    56    33    53    1
@<TRIPOS>SUBSTRUCTURE
     1 UNL1        1 TEMP              0 ****  ****    0 ROOT


##########                                Name:                 150
##########                DOCK_Rotatable_Bonds:                   0
##########                         Heavy_Atoms:                  13
##########                    Molecular_Weight:             180.166
##########                       Formal_Charge:         9.99644e-05
##########                     HBond_Acceptors:                   6
##########                        HBond_Donors:                   1
##########                    Descriptor_Score:           41.261581
##########          Footprint_Similarity_Score:           12.029528
##########                 desc_FPS_vdw_energy:          -26.764992
##########                  desc_FPS_es_energy:           -0.131353
##########              desc_FPS_vdw+es_energy:          -26.896345
##########                  desc_FPS_num_hbond:                   1
##########                    desc_FPS_vdw_fps:           10.105910
##########                     desc_FPS_es_fps:            1.923618
##########                     desc_FPS_hb_fps:            1.000000
##########              desc_FPS_vdw_fp_numres:                 219
##########               desc_FPS_es_fp_numres:                 219
##########               desc_FPS_hb_fp_numres:                 219
##########                 Pharmacophore_Score:           20.000000
##########              desc_FMS_num_match_tot:                   0
##########              desc_FMS_max_match_ref:                  10
##########              desc_FMS_max_match_mol:                   6
##########                 desc_FMS_match_rate:            4.000000
##########                desc_FMS_match_resid:            0.000000
##########    desc_FMS_num_hydrophobic_matched:                   0
##########          desc_FMS_num_donor_matched:                   0
##########       desc_FMS_num_acceptor_matched:                   0
##########       desc_FMS_num_aromatic_matched:                   0
##########       desc_FMS_num_positive_matched:                   0
##########       desc_FMS_num_negative_matched:                   0
##########           desc_FMS_num_ring_matched:                   0
########## Hungarian_Matching_Similarity_Score:            9.232057
##########       desc_HMS_num_unmtchd_hvy_atms:                  22
##########           desc_HMS_num_ref_hvy_atms:                  23
##########        desc_HMS_rmsd_mtchd_hvy_atms:            9.449448
##########               Property_Volume_Score:            0.000000
##########               desc_VOS_geometric_vo:            0.000000
##########                desc_VOS_hvy_atom_vo:            0.000000
##########            desc_VOS_pos_chrg_atm_vo:            0.000000
##########            desc_VOS_neg_chrg_atm_vo:            0.000000
##########         desc_VOS_hydrophobic_atm_vo:            0.000000
##########         desc_VOS_hydrophilic_atm_vo:            0.000000
##########           Internal_energy_repulsive:            2.679198

@<TRIPOS>MOLECULE
150
 21 22 1 0 0
SMALL
GASTEIGER


@<TRIPOS>ATOM
      1 O          21.2102    8.0708   42.6186 O.2     1  UNL1       -0.2464
      2 C          21.8558    8.2742   41.6100 C.ar    1  UNL1        0.3307
      3 N          22.8408    9.2125   41.5229 N.ar    1  UNL1       -0.2797
      4 N          21.6172    7.5536   40.4927 N.ar    1  UNL1       -0.2731
      5 C          23.5762    9.4378   40.3639 C.ar    1  UNL1        0.1678
      6 C          23.1886   10.0587   42.6761 C.3     1  UNL1        0.0181
      7 C          22.2314    7.6454   39.2947 C.ar    1  UNL1        0.2798
      8 N          24.3427    9.9137   39.7118 N.ar    1  UNL1       -0.2177
      9 C          23.2876    8.6758   39.2556 C.ar    1  UNL1        0.1510
     10 O          21.9059    6.9238   38.3735 O.2     1  UNL1       -0.2654
     11 C          24.9912   10.1838   38.8487 C.ar    1  UNL1        0.0986
     12 N          24.1858    9.1869   38.3672 N.ar    1  UNL1       -0.3277
     13 C          24.2959    8.7194   36.9810 C.3     1  UNL1        0.0135
     14 H          20.8886    6.8611   40.5619 H       1  UNL1        0.1735
     15 H          22.5554    9.8412   43.5398 H       1  UNL1        0.0458
     16 H          23.0623   11.1094   42.4011 H       1  UNL1        0.0458
     17 H          24.2325    9.8824   42.9484 H       1  UNL1        0.0458
     18 H          25.7436   10.6698   38.2455 H       1  UNL1        0.1029
     19 H          23.5762    7.9225   36.7821 H       1  UNL1        0.0456
     20 H          25.3053    8.3384   36.8043 H       1  UNL1        0.0456
     21 H          24.0999    9.5524   36.3004 H       1  UNL1        0.0456
@<TRIPOS>BOND
     1     1     2    2
     2     2     3   ar
     3     2     4   ar
     4     3     5   ar
     5     3     6    1
     6     4     7   ar
     7     5     8   ar
     8     5     9   ar
     9     7    10    2
    10     8    11   ar
    11     9    12   ar
    12    12    13    1
    13     7     9   ar
    14    11    12   ar
    15     4    14    1
    16     6    15    1
    17     6    16    1
    18     6    17    1
    19    11    18    1
    20    13    19    1
    21    13    20    1
    22    13    21    1
@<TRIPOS>SUBSTRUCTURE
     1 UNL1        1 TEMP              0 ****  ****    0 ROOT


##########                                Name:                 150
##########                DOCK_Rotatable_Bonds:                   0
##########                         Heavy_Atoms:                  13
##########                    Molecular_Weight:             180.166
##########                       Formal_Charge:         9.99644e-05
##########                     HBond_Acceptors:                   6
##########                        HBond_Donors:                   1
##########                    Descriptor_Score:           41.108223
##########          Footprint_Similarity_Score:           12.116445
##########                 desc_FPS_vdw_energy:          -26.576290
##########                  desc_FPS_es_energy:           -0.360317
##########              desc_FPS_vdw+es_energy:          -26.936607
##########                  desc_FPS_num_hbond:                   2
##########                    desc_FPS_vdw_fps:           10.212815
##########                     desc_FPS_es_fps:            1.903629
##########                     desc_FPS_hb_fps:            1.414214
##########              desc_FPS_vdw_fp_numres:                 219
##########               desc_FPS_es_fp_numres:                 219
##########               desc_FPS_hb_fp_numres:                 219
##########                 Pharmacophore_Score:           20.000000
##########              desc_FMS_num_match_tot:                   0
##########              desc_FMS_max_match_ref:                  10
##########              desc_FMS_max_match_mol:                   6
##########                 desc_FMS_match_rate:            4.000000
##########                desc_FMS_match_resid:            0.000000
##########    desc_FMS_num_hydrophobic_matched:                   0
##########          desc_FMS_num_donor_matched:                   0
##########       desc_FMS_num_acceptor_matched:                   0
##########       desc_FMS_num_aromatic_matched:                   0
##########       desc_FMS_num_positive_matched:                   0
##########       desc_FMS_num_negative_matched:                   0
##########           desc_FMS_num_ring_matched:                   0
########## Hungarian_Matching_Similarity_Score:            8.991781
##########       desc_HMS_num_unmtchd_hvy_atms:                  22
##########           desc_HMS_num_ref_hvy_atms:                  23
##########        desc_HMS_rmsd_mtchd_hvy_atms:            9.209172
##########               Property_Volume_Score:            0.000000
##########               desc_VOS_geometric_vo:            0.000000
##########                desc_VOS_hvy_atom_vo:            0.000000
##########            desc_VOS_pos_chrg_atm_vo:            0.000000
##########            desc_VOS_neg_chrg_atm_vo:            0.000000
##########         desc_VOS_hydrophobic_atm_vo:            0.000000
##########         desc_VOS_hydrophilic_atm_vo:            0.000000
##########           Internal_energy_repulsive:            2.679812

@<TRIPOS>MOLECULE
150
 21 22 1 0 0
SMALL
GASTEIGER


@<TRIPOS>ATOM
      1 O          21.2560    8.0056   42.6962 O.2     1  UNL1       -0.2464
      2 C          21.8153    8.2837   41.6544 C.ar    1  UNL1        0.3307
      3 N          22.5783    9.4004   41.4842 N.ar    1  UNL1       -0.2797
      4 N          21.7015    7.4694   40.5828 N.ar    1  UNL1       -0.2731
      5 C          23.2165    9.7104   40.2878 C.ar    1  UNL1        0.1678
      6 C          22.7734   10.3621   42.5815 C.3     1  UNL1        0.0181
      7 C          22.2482    7.6216   39.3584 C.ar    1  UNL1        0.2798
      8 N          23.8468   10.2993   39.5842 N.ar    1  UNL1       -0.2177
      9 C          23.0627    8.8457   39.2291 C.ar    1  UNL1        0.1510
     10 O          22.0552    6.7989   38.4860 O.2     1  UNL1       -0.2654
     11 C          24.3992   10.6511   38.6844 C.ar    1  UNL1        0.0986
     12 N          23.8078    9.4835   38.2827 N.ar    1  UNL1       -0.3277
     13 C          23.9739    8.9744   36.9169 C.3     1  UNL1        0.0135
     14 H          21.1369    6.6451   40.7133 H       1  UNL1        0.1735
     15 H          22.2250   10.0648   43.4788 H       1  UNL1        0.0458
     16 H          22.4214   11.3468   42.2623 H       1  UNL1        0.0458
     17 H          23.8384   10.4223   42.8205 H       1  UNL1        0.0458
     18 H          25.0151   11.2495   38.0297 H       1  UNL1        0.1029
     19 H          23.4322    8.0353   36.7845 H       1  UNL1        0.0456
     20 H          25.0353    8.8030   36.7189 H       1  UNL1        0.0456
     21 H          23.5878    9.7098   36.2060 H       1  UNL1        0.0456
@<TRIPOS>BOND
     1     1     2    2
     2     2     3   ar
     3     2     4   ar
     4     3     5   ar
     5     3     6    1
     6     4     7   ar
     7     5     8   ar
     8     5     9   ar
     9     7    10    2
    10     8    11   ar
    11     9    12   ar
    12    12    13    1
    13     7     9   ar
    14    11    12   ar
    15     4    14    1
    16     6    15    1
    17     6    16    1
    18     6    17    1
    19    11    18    1
    20    13    19    1
    21    13    20    1
    22    13    21    1
@<TRIPOS>SUBSTRUCTURE
     1 UNL1        1 TEMP              0 ****  ****    0 ROOT


##########                                Name:                 150
##########                DOCK_Rotatable_Bonds:                   0
##########                         Heavy_Atoms:                  13
##########                    Molecular_Weight:             180.166
##########                       Formal_Charge:         9.99644e-05
##########                     HBond_Acceptors:                   6
##########                        HBond_Donors:                   1
##########                    Descriptor_Score:           41.313919
##########          Footprint_Similarity_Score:           12.011772
##########                 desc_FPS_vdw_energy:          -26.717587
##########                  desc_FPS_es_energy:            0.147276
##########              desc_FPS_vdw+es_energy:          -26.570311
##########                  desc_FPS_num_hbond:                   1
##########                    desc_FPS_vdw_fps:           10.092195
##########                     desc_FPS_es_fps:            1.919578
##########                     desc_FPS_hb_fps:            1.000000
##########              desc_FPS_vdw_fp_numres:                 219
##########               desc_FPS_es_fp_numres:                 219
##########               desc_FPS_hb_fp_numres:                 219
##########                 Pharmacophore_Score:           20.000000
##########              desc_FMS_num_match_tot:                   0
##########              desc_FMS_max_match_ref:                  10
##########              desc_FMS_max_match_mol:                   6
##########                 desc_FMS_match_rate:            4.000000
##########                desc_FMS_match_resid:            0.000000
##########    desc_FMS_num_hydrophobic_matched:                   0
##########          desc_FMS_num_donor_matched:                   0
##########       desc_FMS_num_acceptor_matched:                   0
##########       desc_FMS_num_aromatic_matched:                   0
##########       desc_FMS_num_positive_matched:                   0
##########       desc_FMS_num_negative_matched:                   0
##########           desc_FMS_num_ring_matched:                   0
########## Hungarian_Matching_Similarity_Score:            9.302145
##########       desc_HMS_num_unmtchd_hvy_atms:                  22
##########           desc_HMS_num_ref_hvy_atms:                  23
##########        desc_HMS_rmsd_mtchd_hvy_atms:            9.519536
##########               Property_Volume_Score:            0.000000
##########               desc_VOS_geometric_vo:            0.000000
##########                desc_VOS_hvy_atom_vo:            0.000000
##########            desc_VOS_pos_chrg_atm_vo:            0.000000
##########            desc_VOS_neg_chrg_atm_vo:            0.000000
##########         desc_VOS_hydrophobic_atm_vo:            0.000000
##########         desc_VOS_hydrophilic_atm_vo:            0.000000
##########           Internal_energy_repulsive:            2.679590

@<TRIPOS>MOLECULE
150
 21 22 1 0 0
SMALL
GASTEIGER


@<TRIPOS>ATOM
      1 O          21.1678    7.9426   42.4825 O.2     1  UNL1       -0.2464
      2 C          21.8495    8.1654   41.5021 C.ar    1  UNL1        0.3307
      3 N          22.8452    9.0960   41.4730 N.ar    1  UNL1       -0.2797
      4 N          21.6430    7.4761   40.3590 N.ar    1  UNL1       -0.2731
      5 C          23.6220    9.3438   40.3460 C.ar    1  UNL1        0.1678
      6 C          23.1606    9.9090   42.6590 C.3     1  UNL1        0.0181
      7 C          22.2989    7.5926   39.1854 C.ar    1  UNL1        0.2798
      8 N          24.4145    9.8288   39.7330 N.ar    1  UNL1       -0.2177
      9 C          23.3648    8.6133   39.2091 C.ar    1  UNL1        0.1510
     10 O          21.9988    6.8981   38.2353 O.2     1  UNL1       -0.2654
     11 C          25.0947   10.1146   38.8999 C.ar    1  UNL1        0.0986
     12 N          24.2975    9.1382   38.3654 N.ar    1  UNL1       -0.3277
     13 C          24.4510    8.7054   36.9721 C.3     1  UNL1        0.0135
     14 H          20.9064    6.7892   40.3853 H       1  UNL1        0.1735
     15 H          22.4961    9.6756   43.4947 H       1  UNL1        0.0458
     16 H          23.0531   10.9676   42.4073 H       1  UNL1        0.0458
     17 H          24.1929    9.7157   42.9621 H       1  UNL1        0.0458
     18 H          25.8716   10.6086   38.3355 H       1  UNL1        0.1029
     19 H          23.7315    7.9209   36.7282 H       1  UNL1        0.0456
     20 H          25.4625    8.3193   36.8202 H       1  UNL1        0.0456
     21 H          24.2859    9.5574   36.3071 H       1  UNL1        0.0456
@<TRIPOS>BOND
     1     1     2    2
     2     2     3   ar
     3     2     4   ar
     4     3     5   ar
     5     3     6    1
     6     4     7   ar
     7     5     8   ar
     8     5     9   ar
     9     7    10    2
    10     8    11   ar
    11     9    12   ar
    12    12    13    1
    13     7     9   ar
    14    11    12   ar
    15     4    14    1
    16     6    15    1
    17     6    16    1
    18     6    17    1
    19    11    18    1
    20    13    19    1
    21    13    20    1
    22    13    21    1
@<TRIPOS>SUBSTRUCTURE
     1 UNL1        1 TEMP              0 ****  ****    0 ROOT


##########                                Name:                 151
##########                DOCK_Rotatable_Bonds:                   6
##########                         Heavy_Atoms:                  22
##########                    Molecular_Weight:              302.24
##########                       Formal_Charge:         0.000100076
##########                     HBond_Acceptors:                   7
##########                        HBond_Donors:                   5
##########                    Descriptor_Score:           12.252180
##########          Footprint_Similarity_Score:            6.757133
##########                 desc_FPS_vdw_energy:          -31.395247
##########                  desc_FPS_es_energy:           -5.599965
##########              desc_FPS_vdw+es_energy:          -36.995213
##########                  desc_FPS_num_hbond:                   3
##########                    desc_FPS_vdw_fps:            4.141486
##########                     desc_FPS_es_fps:            2.615647
##########                     desc_FPS_hb_fps:            1.732051
##########              desc_FPS_vdw_fp_numres:                 219
##########               desc_FPS_es_fp_numres:                 219
##########               desc_FPS_hb_fp_numres:                 219
##########                 Pharmacophore_Score:            5.497327
##########              desc_FMS_num_match_tot:                   1
##########              desc_FMS_max_match_ref:                  10
##########              desc_FMS_max_match_mol:                  15
##########                 desc_FMS_match_rate:            0.900000
##########                desc_FMS_match_resid:            0.997327
##########    desc_FMS_num_hydrophobic_matched:                   0
##########          desc_FMS_num_donor_matched:                   0
##########       desc_FMS_num_acceptor_matched:                   1
##########       desc_FMS_num_aromatic_matched:                   0
##########       desc_FMS_num_positive_matched:                   0
##########       desc_FMS_num_negative_matched:                   0
##########           desc_FMS_num_ring_matched:                   0
########## Hungarian_Matching_Similarity_Score:            0.302283
##########       desc_HMS_num_unmtchd_hvy_atms:                  11
##########           desc_HMS_num_ref_hvy_atms:                  23
##########        desc_HMS_rmsd_mtchd_hvy_atms:            2.910979
##########               Property_Volume_Score:            0.304564
##########               desc_VOS_geometric_vo:            0.522356
##########                desc_VOS_hvy_atom_vo:            0.542294
##########            desc_VOS_pos_chrg_atm_vo:            0.256614
##########            desc_VOS_neg_chrg_atm_vo:            0.156209
##########         desc_VOS_hydrophobic_atm_vo:            0.230194
##########         desc_VOS_hydrophilic_atm_vo:            0.119717
##########           Internal_energy_repulsive:            2.984375

@<TRIPOS>MOLECULE
151
 32 34 1 0 0
SMALL
GASTEIGER


@<TRIPOS>ATOM
      1 O          16.4859   13.8706   46.2672 O.2     1  UNL1       -0.2830
      2 C          15.9622   13.6687   45.1852 C.ar    1  UNL1        0.2379
      3 C          14.5499   13.2246   45.0378 C.ar    1  UNL1        0.2082
      4 C          16.6545   13.8424   43.8954 C.ar    1  UNL1        0.1092
      5 O          13.9564   13.0904   46.2539 O.3     1  UNL1       -0.5007
      6 C          14.1162   13.0608   44.0026 C.ar    1  UNL1        0.1807
      7 C          15.8984   13.5676   42.7764 C.ar    1  UNL1        0.1465
      8 C          18.0230   14.2756   43.7109 C.ar    1  UNL1        0.1348
      9 O          14.5758   13.1696   42.9757 O.2     1  UNL1       -0.4507
     10 C          12.6935   12.6094   43.7660 C.ar    1  UNL1        0.0247
     11 C          16.4915   13.7104   41.4572 C.ar    1  UNL1        0.0231
     12 O          18.7989   14.5653   44.7855 O.3     1  UNL1       -0.5058
     13 C          18.5734   14.4159   42.4460 C.ar    1  UNL1        0.0223
     14 C          12.4034   11.2632   43.4669 C.ar    1  UNL1       -0.0057
     15 C          11.6353   13.5393   43.7745 C.ar    1  UNL1       -0.0473
     16 C          17.8199   14.1356   41.3161 C.ar    1  UNL1        0.1239
     17 C          11.0905   10.8685   43.1876 C.ar    1  UNL1        0.1589
     18 C          10.3288   13.1308   43.4943 C.ar    1  UNL1       -0.0159
     19 O          18.4393   14.2955   40.1064 O.3     1  UNL1       -0.5065
     20 O          10.7826    9.5730   42.8846 O.3     1  UNL1       -0.5033
     21 C          10.0565   11.7970   43.1979 C.ar    1  UNL1        0.1583
     22 O           8.7902   11.3745   42.8996 O.3     1  UNL1       -0.5033
     23 H          13.0209   12.8136   46.0909 H       1  UNL1        0.2924
     24 H          15.8890   13.4809   40.5817 H       1  UNL1        0.0691
     25 H          19.6572   14.8553   44.4289 H       1  UNL1        0.2922
     26 H          19.6044   14.7482   42.3402 H       1  UNL1        0.0691
     27 H          13.2024   10.5267   43.4410 H       1  UNL1        0.0662
     28 H          11.8269   14.5877   43.9877 H       1  UNL1        0.0626
     29 H           9.5218   13.8596   43.4967 H       1  UNL1        0.0655
     30 H          19.3570   14.5923   40.1749 H       1  UNL1        0.2921
     31 H          11.5866    9.0850   42.6686 H       1  UNL1        0.2923
     32 H           8.1588   11.8808   43.4676 H       1  UNL1        0.2923
@<TRIPOS>BOND
     1     1     2    2
     2     2     3   ar
     3     2     4   ar
     4     3     5    1
     5     3     6   ar
     6     4     7   ar
     7     4     8   ar
     8     6     9   ar
     9     6    10    1
    10     7    11   ar
    11     8    12    1
    12     8    13   ar
    13    10    14   ar
    14    10    15   ar
    15    11    16   ar
    16    14    17   ar
    17    15    18   ar
    18    16    19    1
    19    17    20    1
    20    17    21   ar
    21    21    22    1
    22     7     9   ar
    23    13    16   ar
    24    18    21   ar
    25     5    23    1
    26    11    24    1
    27    12    25    1
    28    13    26    1
    29    14    27    1
    30    15    28    1
    31    18    29    1
    32    19    30    1
    33    20    31    1
    34    22    32    1
@<TRIPOS>SUBSTRUCTURE
     1 UNL1        1 TEMP              0 ****  ****    0 ROOT


##########                                Name:                 151
##########                DOCK_Rotatable_Bonds:                   6
##########                         Heavy_Atoms:                  22
##########                    Molecular_Weight:              302.24
##########                       Formal_Charge:         0.000100076
##########                     HBond_Acceptors:                   7
##########                        HBond_Donors:                   5
##########                    Descriptor_Score:           27.039862
##########          Footprint_Similarity_Score:            7.041449
##########                 desc_FPS_vdw_energy:          -31.771400
##########                  desc_FPS_es_energy:           -5.314498
##########              desc_FPS_vdw+es_energy:          -37.085899
##########                  desc_FPS_num_hbond:                   3
##########                    desc_FPS_vdw_fps:            4.189314
##########                     desc_FPS_es_fps:            2.852134
##########                     desc_FPS_hb_fps:            1.732051
##########              desc_FPS_vdw_fp_numres:                 219
##########               desc_FPS_es_fp_numres:                 219
##########               desc_FPS_hb_fp_numres:                 219
##########                 Pharmacophore_Score:           20.000000
##########              desc_FMS_num_match_tot:                   0
##########              desc_FMS_max_match_ref:                  10
##########              desc_FMS_max_match_mol:                  15
##########                 desc_FMS_match_rate:            4.000000
##########                desc_FMS_match_resid:            0.000000
##########    desc_FMS_num_hydrophobic_matched:                   0
##########          desc_FMS_num_donor_matched:                   0
##########       desc_FMS_num_acceptor_matched:                   0
##########       desc_FMS_num_aromatic_matched:                   0
##########       desc_FMS_num_positive_matched:                   0
##########       desc_FMS_num_negative_matched:                   0
##########           desc_FMS_num_ring_matched:                   0
########## Hungarian_Matching_Similarity_Score:            0.306743
##########       desc_HMS_num_unmtchd_hvy_atms:                  11
##########           desc_HMS_num_ref_hvy_atms:                  23
##########        desc_HMS_rmsd_mtchd_hvy_atms:            2.915439
##########               Property_Volume_Score:            0.308330
##########               desc_VOS_geometric_vo:            0.525814
##########                desc_VOS_hvy_atom_vo:            0.547386
##########            desc_VOS_pos_chrg_atm_vo:            0.256512
##########            desc_VOS_neg_chrg_atm_vo:            0.160955
##########         desc_VOS_hydrophobic_atm_vo:            0.233943
##########         desc_VOS_hydrophilic_atm_vo:            0.125374
##########           Internal_energy_repulsive:            3.005226

@<TRIPOS>MOLECULE
151
 32 34 1 0 0
SMALL
GASTEIGER


@<TRIPOS>ATOM
      1 O          16.5356   13.8789   46.2275 O.2     1  UNL1       -0.2830
      2 C          16.0172   13.6905   45.1405 C.ar    1  UNL1        0.2379
      3 C          14.6008   13.2642   44.9801 C.ar    1  UNL1        0.2082
      4 C          16.7207   13.8649   43.8568 C.ar    1  UNL1        0.1092
      5 O          13.9972   13.1287   46.1911 O.3     1  UNL1       -0.5007
      6 C          14.1726   13.1126   43.9408 C.ar    1  UNL1        0.1807
      7 C          15.9693   13.6066   42.7307 C.ar    1  UNL1        0.1465
      8 C          18.0955   14.2831   43.6849 C.ar    1  UNL1        0.1348
      9 O          14.6408   13.2229   42.9179 O.2     1  UNL1       -0.4507
     10 C          12.7465   12.6796   43.6911 C.ar    1  UNL1        0.0247
     11 C          16.5735   13.7514   41.4167 C.ar    1  UNL1        0.0231
     12 O          18.8670   14.5563   44.7669 O.3     1  UNL1       -0.5058
     13 C          18.6564   14.4255   42.4249 C.ar    1  UNL1        0.0223
     14 C          12.4457   11.3449   43.3532 C.ar    1  UNL1       -0.0057
     15 C          11.6957   13.6173   43.7263 C.ar    1  UNL1       -0.0473
     16 C          17.9077   14.1618   41.2879 C.ar    1  UNL1        0.1239
     17 C          11.1298   10.9690   43.0624 C.ar    1  UNL1        0.1589
     18 C          10.3861   13.2276   43.4343 C.ar    1  UNL1       -0.0159
     19 O          18.5376   14.3226   40.0837 O.3     1  UNL1       -0.5065
     20 O          10.8116    9.6853   42.7221 O.3     1  UNL1       -0.5033
     21 C          10.1032   11.9051   43.0995 C.ar    1  UNL1        0.1583
     22 O           8.8337   11.5016   42.7889 O.3     1  UNL1       -0.5033
     23 H          13.0305   13.0066   46.0210 H       1  UNL1        0.2924
     24 H          15.9746   13.5350   40.5354 H       1  UNL1        0.0691
     25 H          19.7228   14.8628   44.4183 H       1  UNL1        0.2922
     26 H          19.6921   14.7463   42.3286 H       1  UNL1        0.0691
     27 H          13.2388   10.6031   43.3061 H       1  UNL1        0.0662
     28 H          11.8957   14.6575   43.9698 H       1  UNL1        0.0626
     29 H           9.5850   13.9624   43.4577 H       1  UNL1        0.0655
     30 H          17.9527   14.2173   39.3210 H       1  UNL1        0.2921
     31 H          11.6080    9.2062   42.4622 H       1  UNL1        0.2923
     32 H           8.2016   12.0726   43.2909 H       1  UNL1        0.2923
@<TRIPOS>BOND
     1     1     2    2
     2     2     3   ar
     3     2     4   ar
     4     3     5    1
     5     3     6   ar
     6     4     7   ar
     7     4     8   ar
     8     6     9   ar
     9     6    10    1
    10     7    11   ar
    11     8    12    1
    12     8    13   ar
    13    10    14   ar
    14    10    15   ar
    15    11    16   ar
    16    14    17   ar
    17    15    18   ar
    18    16    19    1
    19    17    20    1
    20    17    21   ar
    21    21    22    1
    22     7     9   ar
    23    13    16   ar
    24    18    21   ar
    25     5    23    1
    26    11    24    1
    27    12    25    1
    28    13    26    1
    29    14    27    1
    30    15    28    1
    31    18    29    1
    32    19    30    1
    33    20    31    1
    34    22    32    1
@<TRIPOS>SUBSTRUCTURE
     1 UNL1        1 TEMP              0 ****  ****    0 ROOT


##########                                Name:                 151
##########                DOCK_Rotatable_Bonds:                   6
##########                         Heavy_Atoms:                  22
##########                    Molecular_Weight:              302.24
##########                       Formal_Charge:         0.000100076
##########                     HBond_Acceptors:                   7
##########                        HBond_Donors:                   5
##########                    Descriptor_Score:           27.214268
##########          Footprint_Similarity_Score:            7.222996
##########                 desc_FPS_vdw_energy:          -29.457619
##########                  desc_FPS_es_energy:           -6.003121
##########              desc_FPS_vdw+es_energy:          -35.460739
##########                  desc_FPS_num_hbond:                   3
##########                    desc_FPS_vdw_fps:            4.204860
##########                     desc_FPS_es_fps:            3.018136
##########                     desc_FPS_hb_fps:            1.732051
##########              desc_FPS_vdw_fp_numres:                 219
##########               desc_FPS_es_fp_numres:                 219
##########               desc_FPS_hb_fp_numres:                 219
##########                 Pharmacophore_Score:           20.000000
##########              desc_FMS_num_match_tot:                   0
##########              desc_FMS_max_match_ref:                  10
##########              desc_FMS_max_match_mol:                  15
##########                 desc_FMS_match_rate:            4.000000
##########                desc_FMS_match_resid:            0.000000
##########    desc_FMS_num_hydrophobic_matched:                   0
##########          desc_FMS_num_donor_matched:                   0
##########       desc_FMS_num_acceptor_matched:                   0
##########       desc_FMS_num_aromatic_matched:                   0
##########       desc_FMS_num_positive_matched:                   0
##########       desc_FMS_num_negative_matched:                   0
##########           desc_FMS_num_ring_matched:                   0
########## Hungarian_Matching_Similarity_Score:            0.291998
##########       desc_HMS_num_unmtchd_hvy_atms:                  11
##########           desc_HMS_num_ref_hvy_atms:                  23
##########        desc_HMS_rmsd_mtchd_hvy_atms:            2.900694
##########               Property_Volume_Score:            0.300725
##########               desc_VOS_geometric_vo:            0.523851
##########                desc_VOS_hvy_atom_vo:            0.540360
##########            desc_VOS_pos_chrg_atm_vo:            0.265071
##########            desc_VOS_neg_chrg_atm_vo:            0.148310
##########         desc_VOS_hydrophobic_atm_vo:            0.223819
##########         desc_VOS_hydrophilic_atm_vo:            0.102941
##########           Internal_energy_repulsive:            3.265674

@<TRIPOS>MOLECULE
151
 32 34 1 0 0
SMALL
GASTEIGER


@<TRIPOS>ATOM
      1 O          16.3486   13.9007   46.2403 O.2     1  UNL1       -0.2830
      2 C          15.8205   13.6381   45.1735 C.ar    1  UNL1        0.2379
      3 C          14.4135   13.1684   45.0587 C.ar    1  UNL1        0.2082
      4 C          16.5019   13.7566   43.8716 C.ar    1  UNL1        0.1092
      5 O          13.8299   13.0871   46.2842 O.3     1  UNL1       -0.5007
      6 C          13.9753   12.9474   44.0360 C.ar    1  UNL1        0.1807
      7 C          15.7422   13.4162   42.7733 C.ar    1  UNL1        0.1465
      8 C          17.8631   14.1983   43.6559 C.ar    1  UNL1        0.1348
      9 O          14.4266   13.0110   43.0017 O.2     1  UNL1       -0.4507
     10 C          12.5574   12.4659   43.8325 C.ar    1  UNL1        0.0247
     11 C          16.3246   13.5010   41.4443 C.ar    1  UNL1        0.0231
     12 O          18.6420   14.5515   44.7091 O.3     1  UNL1       -0.5058
     13 C          18.4031   14.2827   42.3816 C.ar    1  UNL1        0.0223
     14 C          12.2976   11.1591   43.3732 C.ar    1  UNL1       -0.0057
     15 C          11.4684   13.3362   44.0349 C.ar    1  UNL1       -0.0473
     16 C          17.6461   13.9363   41.2726 C.ar    1  UNL1        0.1239
     17 C          10.9840   10.7445   43.1281 C.ar    1  UNL1        0.1589
     18 C          10.1617   12.9083   43.7867 C.ar    1  UNL1       -0.0159
     19 O          18.2553   14.0440   40.0519 O.3     1  UNL1       -0.5065
     20 O          10.7043    9.4877   42.6729 O.3     1  UNL1       -0.5033
     21 C           9.9193   11.6144   43.3305 C.ar    1  UNL1        0.1583
     22 O           8.6519   11.1768   43.0598 O.3     1  UNL1       -0.5033
     23 H          13.0586   12.4740   46.1978 H       1  UNL1        0.2924
     24 H          15.7196   13.2202   40.5857 H       1  UNL1        0.0691
     25 H          18.1153   14.3704   45.5076 H       1  UNL1        0.2922
     26 H          19.4288   14.6230   42.2519 H       1  UNL1        0.0691
     27 H          13.1198   10.4705   43.1965 H       1  UNL1        0.0662
     28 H          11.6351   14.3549   44.3754 H       1  UNL1        0.0626
     29 H           9.3302   13.5921   43.9397 H       1  UNL1        0.0655
     30 H          17.6760   13.8318   39.3074 H       1  UNL1        0.2921
     31 H          11.5209    9.0380   42.4238 H       1  UNL1        0.2923
     32 H           8.0300   11.6543   43.6624 H       1  UNL1        0.2923
@<TRIPOS>BOND
     1     1     2    2
     2     2     3   ar
     3     2     4   ar
     4     3     5    1
     5     3     6   ar
     6     4     7   ar
     7     4     8   ar
     8     6     9   ar
     9     6    10    1
    10     7    11   ar
    11     8    12    1
    12     8    13   ar
    13    10    14   ar
    14    10    15   ar
    15    11    16   ar
    16    14    17   ar
    17    15    18   ar
    18    16    19    1
    19    17    20    1
    20    17    21   ar
    21    21    22    1
    22     7     9   ar
    23    13    16   ar
    24    18    21   ar
    25     5    23    1
    26    11    24    1
    27    12    25    1
    28    13    26    1
    29    14    27    1
    30    15    28    1
    31    18    29    1
    32    19    30    1
    33    20    31    1
    34    22    32    1
@<TRIPOS>SUBSTRUCTURE
     1 UNL1        1 TEMP              0 ****  ****    0 ROOT


##########                                Name:                 152
##########                DOCK_Rotatable_Bonds:                   5
##########                         Heavy_Atoms:                  21
##########                    Molecular_Weight:             286.241
##########                       Formal_Charge:        -5.96046e-08
##########                     HBond_Acceptors:                   6
##########                        HBond_Donors:                   4
##########                    Descriptor_Score:           11.533371
##########          Footprint_Similarity_Score:            6.160184
##########                 desc_FPS_vdw_energy:          -29.933554
##########                  desc_FPS_es_energy:           -4.463885
##########              desc_FPS_vdw+es_energy:          -34.397438
##########                  desc_FPS_num_hbond:                   3
##########                    desc_FPS_vdw_fps:            4.267734
##########                     desc_FPS_es_fps:            1.892450
##########                     desc_FPS_hb_fps:            1.732051
##########              desc_FPS_vdw_fp_numres:                 219
##########               desc_FPS_es_fp_numres:                 219
##########               desc_FPS_hb_fp_numres:                 219
##########                 Pharmacophore_Score:            5.523458
##########              desc_FMS_num_match_tot:                   1
##########              desc_FMS_max_match_ref:                  10
##########              desc_FMS_max_match_mol:                  13
##########                 desc_FMS_match_rate:            0.900000
##########                desc_FMS_match_resid:            1.023458
##########    desc_FMS_num_hydrophobic_matched:                   0
##########          desc_FMS_num_donor_matched:                   0
##########       desc_FMS_num_acceptor_matched:                   1
##########       desc_FMS_num_aromatic_matched:                   0
##########       desc_FMS_num_positive_matched:                   0
##########       desc_FMS_num_negative_matched:                   0
##########           desc_FMS_num_ring_matched:                   0
########## Hungarian_Matching_Similarity_Score:            0.146286
##########       desc_HMS_num_unmtchd_hvy_atms:                  10
##########           desc_HMS_num_ref_hvy_atms:                  23
##########        desc_HMS_rmsd_mtchd_hvy_atms:            2.972373
##########               Property_Volume_Score:            0.296557
##########               desc_VOS_geometric_vo:            0.484908
##########                desc_VOS_hvy_atom_vo:            0.517093
##########            desc_VOS_pos_chrg_atm_vo:            0.243599
##########            desc_VOS_neg_chrg_atm_vo:            0.135880
##########         desc_VOS_hydrophobic_atm_vo:            0.247447
##########         desc_VOS_hydrophilic_atm_vo:            0.150415
##########           Internal_energy_repulsive:            2.371171

@<TRIPOS>MOLECULE
152
 31 33 1 0 0
SMALL
GASTEIGER


@<TRIPOS>ATOM
      1 O          16.3032   13.7414   46.0850 O.2     1  UNL1       -0.2869
      2 C          15.9964   13.6364   44.9125 C.ar    1  UNL1        0.1966
      3 C          16.9015   13.8911   43.7827 C.ar    1  UNL1        0.1055
      4 C          14.6368   13.2715   44.4574 C.ar    1  UNL1        0.0288
      5 C          16.3276   13.7534   42.5382 C.ar    1  UNL1        0.1462
      6 C          18.2873   14.3001   43.8637 C.ar    1  UNL1        0.1347
      7 C          14.3080   13.1701   43.3798 C.ar    1  UNL1        0.1393
      8 O          14.9758   13.4047   42.4970 O.2     1  UNL1       -0.4544
      9 C          17.1145   14.0152   41.3504 C.ar    1  UNL1        0.0231
     10 O          18.8850   14.4589   45.0745 O.3     1  UNL1       -0.5058
     11 C          19.0275   14.5562   42.7177 C.ar    1  UNL1        0.0223
     12 C          12.8659   12.8139   43.0576 C.ar    1  UNL1        0.0211
     13 C          18.4512   14.4151   41.4622 C.ar    1  UNL1        0.1239
     14 C          12.3842   11.4871   43.1685 C.ar    1  UNL1       -0.0059
     15 C          11.9518   13.8149   42.6691 C.ar    1  UNL1       -0.0474
     16 O          19.2319   14.6779   40.3728 O.3     1  UNL1       -0.5065
     17 C          11.0388   11.1908   42.9460 C.ar    1  UNL1        0.1589
     18 C          10.6092   13.5071   42.4435 C.ar    1  UNL1       -0.0159
     19 O          10.5665    9.9130   43.0846 O.3     1  UNL1       -0.5033
     20 C          10.1509   12.2012   42.5931 C.ar    1  UNL1        0.1583
     21 O           8.8357   11.8922   42.4079 O.3     1  UNL1       -0.5033
     22 H          13.9381   13.1872   45.2826 H       1  UNL1        0.0693
     23 H          16.6520   13.8952   40.3739 H       1  UNL1        0.0691
     24 H          19.8050   14.7346   44.9014 H       1  UNL1        0.2922
     25 H          20.0657   14.8709   42.8043 H       1  UNL1        0.0691
     26 H          13.0507   10.6712   43.4348 H       1  UNL1        0.0662
     27 H          12.2734   14.8486   42.5660 H       1  UNL1        0.0626
     28 H          18.7505   14.5577   39.5422 H       1  UNL1        0.2921
     29 H           9.9143   14.2954   42.1642 H       1  UNL1        0.0655
     30 H          11.2723    9.2602   42.9349 H       1  UNL1        0.2923
     31 H           8.4522   12.5856   41.8255 H       1  UNL1        0.2923
@<TRIPOS>BOND
     1     1     2    2
     2     2     3   ar
     3     2     4   ar
     4     3     5   ar
     5     3     6   ar
     6     4     7   ar
     7     5     8   ar
     8     5     9   ar
     9     6    10    1
    10     6    11   ar
    11     7    12    1
    12     9    13   ar
    13    12    14   ar
    14    12    15   ar
    15    13    16    1
    16    14    17   ar
    17    15    18   ar
    18    17    19    1
    19    17    20   ar
    20    20    21    1
    21     7     8   ar
    22    11    13   ar
    23    18    20   ar
    24     4    22    1
    25     9    23    1
    26    10    24    1
    27    11    25    1
    28    14    26    1
    29    15    27    1
    30    16    28    1
    31    18    29    1
    32    19    30    1
    33    21    31    1
@<TRIPOS>SUBSTRUCTURE
     1 UNL1        1 TEMP              0 ****  ****    0 ROOT


##########                                Name:                 152
##########                DOCK_Rotatable_Bonds:                   5
##########                         Heavy_Atoms:                  21
##########                    Molecular_Weight:             286.241
##########                       Formal_Charge:        -5.96046e-08
##########                     HBond_Acceptors:                   6
##########                        HBond_Donors:                   4
##########                    Descriptor_Score:           26.344446
##########          Footprint_Similarity_Score:            6.450929
##########                 desc_FPS_vdw_energy:          -28.557295
##########                  desc_FPS_es_energy:           -4.913654
##########              desc_FPS_vdw+es_energy:          -33.470947
##########                  desc_FPS_num_hbond:                   3
##########                    desc_FPS_vdw_fps:            4.118350
##########                     desc_FPS_es_fps:            2.332579
##########                     desc_FPS_hb_fps:            1.732051
##########              desc_FPS_vdw_fp_numres:                 219
##########               desc_FPS_es_fp_numres:                 219
##########               desc_FPS_hb_fp_numres:                 219
##########                 Pharmacophore_Score:           20.000000
##########              desc_FMS_num_match_tot:                   0
##########              desc_FMS_max_match_ref:                  10
##########              desc_FMS_max_match_mol:                  13
##########                 desc_FMS_match_rate:            4.000000
##########                desc_FMS_match_resid:            0.000000
##########    desc_FMS_num_hydrophobic_matched:                   0
##########          desc_FMS_num_donor_matched:                   0
##########       desc_FMS_num_acceptor_matched:                   0
##########       desc_FMS_num_aromatic_matched:                   0
##########       desc_FMS_num_positive_matched:                   0
##########       desc_FMS_num_negative_matched:                   0
##########           desc_FMS_num_ring_matched:                   0
########## Hungarian_Matching_Similarity_Score:            0.183960
##########       desc_HMS_num_unmtchd_hvy_atms:                  10
##########           desc_HMS_num_ref_hvy_atms:                  23
##########        desc_HMS_rmsd_mtchd_hvy_atms:            3.010047
##########               Property_Volume_Score:            0.290442
##########               desc_VOS_geometric_vo:            0.473234
##########                desc_VOS_hvy_atom_vo:            0.511024
##########            desc_VOS_pos_chrg_atm_vo:            0.238370
##########            desc_VOS_neg_chrg_atm_vo:            0.129997
##########         desc_VOS_hydrophobic_atm_vo:            0.239771
##########         desc_VOS_hydrophilic_atm_vo:            0.150253
##########           Internal_energy_repulsive:            2.439317

@<TRIPOS>MOLECULE
152
 31 33 1 0 0
SMALL
GASTEIGER


@<TRIPOS>ATOM
      1 O          16.3387   13.5363   46.0156 O.2     1  UNL1       -0.2869
      2 C          16.0217   13.5123   44.8413 C.ar    1  UNL1        0.1966
      3 C          16.9131   13.8577   43.7249 C.ar    1  UNL1        0.1055
      4 C          14.6618   13.1657   44.3732 C.ar    1  UNL1        0.0288
      5 C          16.3287   13.8033   42.4788 C.ar    1  UNL1        0.1462
      6 C          18.2952   14.2755   43.8228 C.ar    1  UNL1        0.1347
      7 C          14.3237   13.1383   43.2941 C.ar    1  UNL1        0.1393
      8 O          14.9805   13.4432   42.4246 O.2     1  UNL1       -0.4544
      9 C          17.1014   14.1586   41.3060 C.ar    1  UNL1        0.0231
     10 O          18.9029   14.3535   45.0366 O.3     1  UNL1       -0.5058
     11 C          19.0216   14.6215   42.6917 C.ar    1  UNL1        0.0223
     12 C          12.8824   12.7898   42.9598 C.ar    1  UNL1        0.0211
     13 C          18.4348   14.5644   41.4344 C.ar    1  UNL1        0.1239
     14 C          12.3776   11.4768   43.1199 C.ar    1  UNL1       -0.0059
     15 C          11.9919   13.7863   42.5096 C.ar    1  UNL1       -0.0474
     16 O          19.2021   14.9137   40.3600 O.3     1  UNL1       -0.5065
     17 C          11.0321   11.1912   42.8845 C.ar    1  UNL1        0.1589
     18 C          10.6491   13.4890   42.2716 C.ar    1  UNL1       -0.0159
     19 O          10.5369    9.9281   43.0702 O.3     1  UNL1       -0.5033
     20 C          10.1672   12.1982   42.4699 C.ar    1  UNL1        0.1583
     21 O           8.8510   11.9011   42.2729 O.3     1  UNL1       -0.5033
     22 H          13.9720   13.0145   45.1963 H       1  UNL1        0.0693
     23 H          16.6308   14.1039   40.3275 H       1  UNL1        0.0691
     24 H          19.8049   14.6913   44.8797 H       1  UNL1        0.2922
     25 H          20.0572   14.9409   42.7916 H       1  UNL1        0.0691
     26 H          13.0259   10.6635   43.4350 H       1  UNL1        0.0662
     27 H          12.3318   14.8094   42.3671 H       1  UNL1        0.0626
     28 H          20.1105   15.1273   40.6152 H       1  UNL1        0.2921
     29 H           9.9722   14.2745   41.9442 H       1  UNL1        0.0655
     30 H          11.2464    9.2637   43.0276 H       1  UNL1        0.2923
     31 H           8.4149   12.7161   41.9372 H       1  UNL1        0.2923
@<TRIPOS>BOND
     1     1     2    2
     2     2     3   ar
     3     2     4   ar
     4     3     5   ar
     5     3     6   ar
     6     4     7   ar
     7     5     8   ar
     8     5     9   ar
     9     6    10    1
    10     6    11   ar
    11     7    12    1
    12     9    13   ar
    13    12    14   ar
    14    12    15   ar
    15    13    16    1
    16    14    17   ar
    17    15    18   ar
    18    17    19    1
    19    17    20   ar
    20    20    21    1
    21     7     8   ar
    22    11    13   ar
    23    18    20   ar
    24     4    22    1
    25     9    23    1
    26    10    24    1
    27    11    25    1
    28    14    26    1
    29    15    27    1
    30    16    28    1
    31    18    29    1
    32    19    30    1
    33    21    31    1
@<TRIPOS>SUBSTRUCTURE
     1 UNL1        1 TEMP              0 ****  ****    0 ROOT


##########                                Name:                 152
##########                DOCK_Rotatable_Bonds:                   5
##########                         Heavy_Atoms:                  21
##########                    Molecular_Weight:             286.241
##########                       Formal_Charge:        -5.96046e-08
##########                     HBond_Acceptors:                   6
##########                        HBond_Donors:                   4
##########                    Descriptor_Score:           25.296600
##########          Footprint_Similarity_Score:            5.593338
##########                 desc_FPS_vdw_energy:          -30.257473
##########                  desc_FPS_es_energy:           -3.070898
##########              desc_FPS_vdw+es_energy:          -33.328369
##########                  desc_FPS_num_hbond:                   3
##########                    desc_FPS_vdw_fps:            4.046094
##########                     desc_FPS_es_fps:            1.547245
##########                     desc_FPS_hb_fps:            1.732051
##########              desc_FPS_vdw_fp_numres:                 219
##########               desc_FPS_es_fp_numres:                 219
##########               desc_FPS_hb_fp_numres:                 219
##########                 Pharmacophore_Score:           20.000000
##########              desc_FMS_num_match_tot:                   0
##########              desc_FMS_max_match_ref:                  10
##########              desc_FMS_max_match_mol:                  13
##########                 desc_FMS_match_rate:            4.000000
##########                desc_FMS_match_resid:            0.000000
##########    desc_FMS_num_hydrophobic_matched:                   0
##########          desc_FMS_num_donor_matched:                   0
##########       desc_FMS_num_acceptor_matched:                   0
##########       desc_FMS_num_aromatic_matched:                   0
##########       desc_FMS_num_positive_matched:                   0
##########       desc_FMS_num_negative_matched:                   0
##########           desc_FMS_num_ring_matched:                   0
########## Hungarian_Matching_Similarity_Score:            0.000313
##########       desc_HMS_num_unmtchd_hvy_atms:                  10
##########           desc_HMS_num_ref_hvy_atms:                  23
##########        desc_HMS_rmsd_mtchd_hvy_atms:            2.826400
##########               Property_Volume_Score:            0.297051
##########               desc_VOS_geometric_vo:            0.512337
##########                desc_VOS_hvy_atom_vo:            0.528722
##########            desc_VOS_pos_chrg_atm_vo:            0.251017
##########            desc_VOS_neg_chrg_atm_vo:            0.139319
##########         desc_VOS_hydrophobic_atm_vo:            0.251976
##########         desc_VOS_hydrophilic_atm_vo:            0.098933
##########           Internal_energy_repulsive:            2.352434

@<TRIPOS>MOLECULE
152
 31 33 1 0 0
SMALL
GASTEIGER


@<TRIPOS>ATOM
      1 O          15.9908   13.7183   46.2224 O.2     1  UNL1       -0.2869
      2 C          15.6287   13.5228   45.0776 C.ar    1  UNL1        0.1966
      3 C          16.4715   13.7099   43.8880 C.ar    1  UNL1        0.1055
      4 C          14.2562   13.1025   44.7195 C.ar    1  UNL1        0.0288
      5 C          15.8398   13.4720   42.6873 C.ar    1  UNL1        0.1462
      6 C          17.8508   14.1474   43.8690 C.ar    1  UNL1        0.1347
      7 C          13.8768   12.9171   43.6701 C.ar    1  UNL1        0.1393
      8 O          14.4953   13.0981   42.7400 O.2     1  UNL1       -0.4544
      9 C          16.5616   13.6599   41.4454 C.ar    1  UNL1        0.0231
     10 O          18.5041   14.4042   45.0333 O.3     1  UNL1       -0.5058
     11 C          18.5281   14.3318   42.6715 C.ar    1  UNL1        0.0223
     12 C          12.4283   12.5137   43.4479 C.ar    1  UNL1        0.0211
     13 C          17.8936   14.0897   41.4602 C.ar    1  UNL1        0.1239
     14 C          12.0472   11.1580   43.3008 C.ar    1  UNL1       -0.0059
     15 C          11.4108   13.4897   43.4174 C.ar    1  UNL1       -0.0474
     16 O          18.6140   14.2857   40.3166 O.3     1  UNL1       -0.5065
     17 C          10.7044   10.7990   43.1774 C.ar    1  UNL1        0.1589
     18 C          10.0710   13.1204   43.2879 C.ar    1  UNL1       -0.0159
     19 O          10.3334    9.4855   43.0674 O.3     1  UNL1       -0.5033
     20 C           9.7172   11.7784   43.1803 C.ar    1  UNL1        0.1583
     21 O           8.4100   11.4014   43.0863 O.3     1  UNL1       -0.5033
     22 H          13.6010   13.0666   45.5830 H       1  UNL1        0.0693
     23 H          16.0541   13.4611   40.5048 H       1  UNL1        0.0691
     24 H          19.1568   15.1042   44.8426 H       1  UNL1        0.2922
     25 H          19.5626   14.6698   42.6824 H       1  UNL1        0.0691
     26 H          12.7920   10.3667   43.2865 H       1  UNL1        0.0662
     27 H          11.6523   14.5447   43.5223 H       1  UNL1        0.0626
     28 H          18.1395   13.9809   39.5305 H       1  UNL1        0.2921
     29 H           9.2981   13.8852   43.2866 H       1  UNL1        0.0655
     30 H           9.3989    9.3638   43.3095 H       1  UNL1        0.2923
     31 H           7.9949   11.9588   42.3905 H       1  UNL1        0.2923
@<TRIPOS>BOND
     1     1     2    2
     2     2     3   ar
     3     2     4   ar
     4     3     5   ar
     5     3     6   ar
     6     4     7   ar
     7     5     8   ar
     8     5     9   ar
     9     6    10    1
    10     6    11   ar
    11     7    12    1
    12     9    13   ar
    13    12    14   ar
    14    12    15   ar
    15    13    16    1
    16    14    17   ar
    17    15    18   ar
    18    17    19    1
    19    17    20   ar
    20    20    21    1
    21     7     8   ar
    22    11    13   ar
    23    18    20   ar
    24     4    22    1
    25     9    23    1
    26    10    24    1
    27    11    25    1
    28    14    26    1
    29    15    27    1
    30    16    28    1
    31    18    29    1
    32    19    30    1
    33    21    31    1
@<TRIPOS>SUBSTRUCTURE
     1 UNL1        1 TEMP              0 ****  ****    0 ROOT

