MODEL 1
REMARK VINA RESULT:    -4.881      0.000      0.000
REMARK INTER + INTRA:          -5.024
REMARK INTER:                  -5.024
REMARK INTRA:                   0.000
REMARK UNBOUND:                 0.000
REMARK  Name = opt77.pdb
REMARK  1 active torsions:
REMARK  status: ('A' for Active; 'I' for Inactive)
REMARK    1  A    between atoms: N_1  and  C_2
REMARK                            x       y       z     vdW  Elec       q    Type
REMARK                         _______ _______ _______ _____ _____    ______ ____
ROOT
ATOM      1  C   UNL     1      14.637  12.254  44.154  0.00  0.00    +0.000 C 
ATOM      2  C   UNL     1      14.569  12.377  42.608  0.00  0.00    +0.000 C 
ATOM      3  C   UNL     1      13.317  12.792  44.768  0.00  0.00    +0.000 C 
ATOM      4  C   UNL     1      15.826  13.101  44.684  0.00  0.00    +0.000 C 
ATOM      5  C   UNL     1      14.376  13.863  42.207  0.00  0.00    +0.000 C 
ATOM      6  C   UNL     1      13.119  14.278  44.368  0.00  0.00    +0.000 C 
ATOM      7  C   UNL     1      15.632  14.587  44.286  0.00  0.00    +0.000 C 
ATOM      8  C   UNL     1      13.055  14.392  42.823  0.00  0.00    +0.000 C 
ATOM      9  C   UNL     1      15.566  14.699  42.741  0.00  0.00    +0.000 C 
ATOM     10  C   UNL     1      14.310  15.117  44.897  0.00  0.00    +0.000 C 
ENDROOT
BRANCH   1  11
ATOM     11  N   UNL     1      14.825  10.840  44.527  0.00  0.00    +0.000 NA
ATOM     12  H   UNL     1      14.150  10.575  45.241  0.00  0.00    +0.000 HD
ATOM     13  H   UNL     1      14.662  10.242  43.720  0.00  0.00    +0.000 HD
ENDBRANCH   1  11
TORSDOF 1
ENDMDL
MODEL 2
REMARK VINA RESULT:    -4.856      0.053      2.279
REMARK INTER + INTRA:          -4.998
REMARK INTER:                  -4.998
REMARK INTRA:                   0.000
REMARK UNBOUND:                 0.000
REMARK  Name = opt77.pdb
REMARK  1 active torsions:
REMARK  status: ('A' for Active; 'I' for Inactive)
REMARK    1  A    between atoms: N_1  and  C_2
REMARK                            x       y       z     vdW  Elec       q    Type
REMARK                         _______ _______ _______ _____ _____    ______ ____
ROOT
ATOM      1  C   UNL     1      14.635  12.286  44.120  0.00  0.00    +0.000 C 
ATOM      2  C   UNL     1      13.300  12.799  44.722  0.00  0.00    +0.000 C 
ATOM      3  C   UNL     1      15.807  13.142  44.671  0.00  0.00    +0.000 C 
ATOM      4  C   UNL     1      14.587  12.427  42.574  0.00  0.00    +0.000 C 
ATOM      5  C   UNL     1      13.086  14.287  44.337  0.00  0.00    +0.000 C 
ATOM      6  C   UNL     1      15.596  14.630  44.289  0.00  0.00    +0.000 C 
ATOM      7  C   UNL     1      14.376  13.914  42.187  0.00  0.00    +0.000 C 
ATOM      8  C   UNL     1      14.259  15.134  44.892  0.00  0.00    +0.000 C 
ATOM      9  C   UNL     1      13.040  14.416  42.793  0.00  0.00    +0.000 C 
ATOM     10  C   UNL     1      15.546  14.764  42.745  0.00  0.00    +0.000 C 
ENDROOT
BRANCH   1  11
ATOM     11  N   UNL     1      14.829  10.872  44.487  0.00  0.00    +0.000 NA
ATOM     12  H   UNL     1      14.871  10.297  43.648  0.00  0.00    +0.000 HD
ATOM     13  H   UNL     1      15.713  10.756  44.977  0.00  0.00    +0.000 HD
ENDBRANCH   1  11
TORSDOF 1
ENDMDL
MODEL 3
REMARK VINA RESULT:    -4.831      0.098      2.313
REMARK INTER + INTRA:          -4.973
REMARK INTER:                  -4.973
REMARK INTRA:                   0.000
REMARK UNBOUND:                 0.000
REMARK  Name = opt77.pdb
REMARK  1 active torsions:
REMARK  status: ('A' for Active; 'I' for Inactive)
REMARK    1  A    between atoms: N_1  and  C_2
REMARK                            x       y       z     vdW  Elec       q    Type
REMARK                         _______ _______ _______ _____ _____    ______ ____
ROOT
ATOM      1  C   UNL     1      14.669  12.288  44.132  0.00  0.00    +0.000 C 
ATOM      2  C   UNL     1      15.851  13.113  44.708  0.00  0.00    +0.000 C 
ATOM      3  C   UNL     1      14.661  12.419  42.585  0.00  0.00    +0.000 C 
ATOM      4  C   UNL     1      13.333  12.846  44.695  0.00  0.00    +0.000 C 
ATOM      5  C   UNL     1      15.695  14.604  44.311  0.00  0.00    +0.000 C 
ATOM      6  C   UNL     1      14.507  13.909  42.184  0.00  0.00    +0.000 C 
ATOM      7  C   UNL     1      13.175  14.336  44.296  0.00  0.00    +0.000 C 
ATOM      8  C   UNL     1      15.690  14.725  42.765  0.00  0.00    +0.000 C 
ATOM      9  C   UNL     1      14.361  15.151  44.877  0.00  0.00    +0.000 C 
ATOM     10  C   UNL     1      13.174  14.460  42.751  0.00  0.00    +0.000 C 
ENDROOT
BRANCH   1  11
ATOM     11  N   UNL     1      14.822  10.874  44.517  0.00  0.00    +0.000 NA
ATOM     12  H   UNL     1      13.957  10.528  44.925  0.00  0.00    +0.000 HD
ATOM     13  H   UNL     1      15.017  10.308  43.695  0.00  0.00    +0.000 HD
ENDBRANCH   1  11
TORSDOF 1
ENDMDL
MODEL 4
REMARK VINA RESULT:    -4.607      1.513      2.826
REMARK INTER + INTRA:          -4.741
REMARK INTER:                  -4.741
REMARK INTRA:                   0.000
REMARK UNBOUND:                 0.000
REMARK  Name = opt77.pdb
REMARK  1 active torsions:
REMARK  status: ('A' for Active; 'I' for Inactive)
REMARK    1  A    between atoms: N_1  and  C_2
REMARK                            x       y       z     vdW  Elec       q    Type
REMARK                         _______ _______ _______ _____ _____    ______ ____
ROOT
ATOM      1  C   UNL     1      15.468  13.941  45.053  0.00  0.00    +0.000 C 
ATOM      2  C   UNL     1      15.314  15.485  45.028  0.00  0.00    +0.000 C 
ATOM      3  C   UNL     1      15.916  13.449  43.650  0.00  0.00    +0.000 C 
ATOM      4  C   UNL     1      14.099  13.296  45.403  0.00  0.00    +0.000 C 
ATOM      5  C   UNL     1      14.256  15.892  43.970  0.00  0.00    +0.000 C 
ATOM      6  C   UNL     1      14.861  13.856  42.588  0.00  0.00    +0.000 C 
ATOM      7  C   UNL     1      13.041  13.700  44.344  0.00  0.00    +0.000 C 
ATOM      8  C   UNL     1      14.712  15.399  42.573  0.00  0.00    +0.000 C 
ATOM      9  C   UNL     1      12.895  15.243  44.328  0.00  0.00    +0.000 C 
ATOM     10  C   UNL     1      13.497  13.211  42.945  0.00  0.00    +0.000 C 
ENDROOT
BRANCH   1  11
ATOM     11  N   UNL     1      16.472  13.562  46.063  0.00  0.00    +0.000 NA
ATOM     12  H   UNL     1      16.236  12.659  46.467  0.00  0.00    +0.000 HD
ATOM     13  H   UNL     1      17.387  13.470  45.628  0.00  0.00    +0.000 HD
ENDBRANCH   1  11
TORSDOF 1
ENDMDL
MODEL 5
REMARK VINA RESULT:    -4.606      1.534      2.516
REMARK INTER + INTRA:          -4.741
REMARK INTER:                  -4.741
REMARK INTRA:                   0.000
REMARK UNBOUND:                 0.000
REMARK  Name = opt77.pdb
REMARK  1 active torsions:
REMARK  status: ('A' for Active; 'I' for Inactive)
REMARK    1  A    between atoms: N_1  and  C_2
REMARK                            x       y       z     vdW  Elec       q    Type
REMARK                         _______ _______ _______ _____ _____    ______ ____
ROOT
ATOM      1  C   UNL     1      15.435  13.971  45.091  0.00  0.00    +0.000 C 
ATOM      2  C   UNL     1      14.058  13.364  45.474  0.00  0.00    +0.000 C 
ATOM      3  C   UNL     1      15.308  15.516  45.010  0.00  0.00    +0.000 C 
ATOM      4  C   UNL     1      15.867  13.423  43.704  0.00  0.00    +0.000 C 
ATOM      5  C   UNL     1      13.000  13.746  44.406  0.00  0.00    +0.000 C 
ATOM      6  C   UNL     1      14.249  15.901  43.944  0.00  0.00    +0.000 C 
ATOM      7  C   UNL     1      14.811  13.806  42.635  0.00  0.00    +0.000 C 
ATOM      8  C   UNL     1      12.879  15.289  44.333  0.00  0.00    +0.000 C 
ATOM      9  C   UNL     1      13.441  13.195  43.026  0.00  0.00    +0.000 C 
ATOM     10  C   UNL     1      14.685  15.349  42.562  0.00  0.00    +0.000 C 
ENDROOT
BRANCH   1  11
ATOM     11  N   UNL     1      16.435  13.601  46.108  0.00  0.00    +0.000 NA
ATOM     12  H   UNL     1      17.372  13.662  45.714  0.00  0.00    +0.000 HD
ATOM     13  H   UNL     1      16.394  14.250  46.891  0.00  0.00    +0.000 HD
ENDBRANCH   1  11
TORSDOF 1
ENDMDL
MODEL 6
REMARK VINA RESULT:    -4.598      1.520      1.868
REMARK INTER + INTRA:          -4.732
REMARK INTER:                  -4.732
REMARK INTRA:                   0.000
REMARK UNBOUND:                 0.000
REMARK  Name = opt77.pdb
REMARK  1 active torsions:
REMARK  status: ('A' for Active; 'I' for Inactive)
REMARK    1  A    between atoms: N_1  and  C_2
REMARK                            x       y       z     vdW  Elec       q    Type
REMARK                         _______ _______ _______ _____ _____    ______ ____
ROOT
ATOM      1  C   UNL     1      15.461  13.917  45.041  0.00  0.00    +0.000 C 
ATOM      2  C   UNL     1      15.931  13.345  43.677  0.00  0.00    +0.000 C 
ATOM      3  C   UNL     1      14.100  13.275  45.423  0.00  0.00    +0.000 C 
ATOM      4  C   UNL     1      15.279  15.455  44.916  0.00  0.00    +0.000 C 
ATOM      5  C   UNL     1      14.879  13.662  42.582  0.00  0.00    +0.000 C 
ATOM      6  C   UNL     1      13.045  13.589  44.329  0.00  0.00    +0.000 C 
ATOM      7  C   UNL     1      14.225  15.773  43.823  0.00  0.00    +0.000 C 
ATOM      8  C   UNL     1      13.525  13.016  42.970  0.00  0.00    +0.000 C 
ATOM      9  C   UNL     1      14.705  15.198  42.466  0.00  0.00    +0.000 C 
ATOM     10  C   UNL     1      12.871  15.125  44.207  0.00  0.00    +0.000 C 
ENDROOT
BRANCH   1  11
ATOM     11  N   UNL     1      16.467  13.615  46.074  0.00  0.00    +0.000 NA
ATOM     12  H   UNL     1      16.109  13.865  46.993  0.00  0.00    +0.000 HD
ATOM     13  H   UNL     1      16.664  12.617  46.088  0.00  0.00    +0.000 HD
ENDBRANCH   1  11
TORSDOF 1
ENDMDL
MODEL 7
REMARK VINA RESULT:    -4.400      1.464      3.007
REMARK INTER + INTRA:          -4.528
REMARK INTER:                  -4.528
REMARK INTRA:                   0.000
REMARK UNBOUND:                 0.000
REMARK  Name = opt77.pdb
REMARK  1 active torsions:
REMARK  status: ('A' for Active; 'I' for Inactive)
REMARK    1  A    between atoms: N_1  and  C_2
REMARK                            x       y       z     vdW  Elec       q    Type
REMARK                         _______ _______ _______ _____ _____    ______ ____
ROOT
ATOM      1  C   UNL     1      14.748  13.552  44.798  0.00  0.00    +0.000 C 
ATOM      2  C   UNL     1      15.920  13.738  45.799  0.00  0.00    +0.000 C 
ATOM      3  C   UNL     1      15.314  13.087  43.429  0.00  0.00    +0.000 C 
ATOM      4  C   UNL     1      14.015  14.909  44.610  0.00  0.00    +0.000 C 
ATOM      5  C   UNL     1      16.912  14.800  45.256  0.00  0.00    +0.000 C 
ATOM      6  C   UNL     1      16.308  14.146  42.884  0.00  0.00    +0.000 C 
ATOM      7  C   UNL     1      15.006  15.970  44.065  0.00  0.00    +0.000 C 
ATOM      8  C   UNL     1      17.473  14.327  43.891  0.00  0.00    +0.000 C 
ATOM      9  C   UNL     1      16.171  16.149  45.072  0.00  0.00    +0.000 C 
ATOM     10  C   UNL     1      15.571  15.497  42.701  0.00  0.00    +0.000 C 
ENDROOT
BRANCH   1  11
ATOM     11  N   UNL     1      13.809  12.545  45.323  0.00  0.00    +0.000 NA
ATOM     12  H   UNL     1      12.869  12.933  45.364  0.00  0.00    +0.000 HD
ATOM     13  H   UNL     1      13.776  11.741  44.701  0.00  0.00    +0.000 HD
ENDBRANCH   1  11
TORSDOF 1
ENDMDL
MODEL 8
REMARK VINA RESULT:    -4.371      1.490      2.101
REMARK INTER + INTRA:          -4.499
REMARK INTER:                  -4.499
REMARK INTRA:                   0.000
REMARK UNBOUND:                 0.000
REMARK  Name = opt77.pdb
REMARK  1 active torsions:
REMARK  status: ('A' for Active; 'I' for Inactive)
REMARK    1  A    between atoms: N_1  and  C_2
REMARK                            x       y       z     vdW  Elec       q    Type
REMARK                         _______ _______ _______ _____ _____    ______ ____
ROOT
ATOM      1  C   UNL     1      14.742  13.608  44.789  0.00  0.00    +0.000 C 
ATOM      2  C   UNL     1      15.346  13.171  43.428  0.00  0.00    +0.000 C 
ATOM      3  C   UNL     1      14.030  14.977  44.617  0.00  0.00    +0.000 C 
ATOM      4  C   UNL     1      15.882  13.756  45.833  0.00  0.00    +0.000 C 
ATOM      5  C   UNL     1      16.368  14.233  42.942  0.00  0.00    +0.000 C 
ATOM      6  C   UNL     1      15.048  16.041  44.129  0.00  0.00    +0.000 C 
ATOM      7  C   UNL     1      16.903  14.819  45.349  0.00  0.00    +0.000 C 
ATOM      8  C   UNL     1      15.649  15.596  42.771  0.00  0.00    +0.000 C 
ATOM      9  C   UNL     1      17.501  14.374  43.990  0.00  0.00    +0.000 C 
ATOM     10  C   UNL     1      16.185  16.182  45.174  0.00  0.00    +0.000 C 
ENDROOT
BRANCH   1  11
ATOM     11  N   UNL     1      13.775  12.593  45.246  0.00  0.00    +0.000 NA
ATOM     12  H   UNL     1      13.215  12.963  46.010  0.00  0.00    +0.000 HD
ATOM     13  H   UNL     1      13.136  12.354  44.491  0.00  0.00    +0.000 HD
ENDBRANCH   1  11
TORSDOF 1
ENDMDL
MODEL 9
REMARK VINA RESULT:    -4.365      1.308      2.641
REMARK INTER + INTRA:          -4.493
REMARK INTER:                  -4.493
REMARK INTRA:                   0.000
REMARK UNBOUND:                 0.000
REMARK  Name = opt77.pdb
REMARK  1 active torsions:
REMARK  status: ('A' for Active; 'I' for Inactive)
REMARK    1  A    between atoms: N_1  and  C_2
REMARK                            x       y       z     vdW  Elec       q    Type
REMARK                         _______ _______ _______ _____ _____    ______ ____
ROOT
ATOM      1  C   UNL     1      14.538  13.402  44.721  0.00  0.00    +0.000 C 
ATOM      2  C   UNL     1      13.733  14.729  44.695  0.00  0.00    +0.000 C 
ATOM      3  C   UNL     1      15.826  13.601  45.565  0.00  0.00    +0.000 C 
ATOM      4  C   UNL     1      14.936  13.015  43.270  0.00  0.00    +0.000 C 
ATOM      5  C   UNL     1      14.597  15.856  44.070  0.00  0.00    +0.000 C 
ATOM      6  C   UNL     1      16.691  14.729  44.944  0.00  0.00    +0.000 C 
ATOM      7  C   UNL     1      15.802  14.140  42.646  0.00  0.00    +0.000 C 
ATOM      8  C   UNL     1      15.879  16.049  44.919  0.00  0.00    +0.000 C 
ATOM      9  C   UNL     1      14.989  15.461  42.624  0.00  0.00    +0.000 C 
ATOM     10  C   UNL     1      17.083  14.338  43.495  0.00  0.00    +0.000 C 
ENDROOT
BRANCH   1  11
ATOM     11  N   UNL     1      13.709  12.336  45.312  0.00  0.00    +0.000 NA
ATOM     12  H   UNL     1      14.251  11.479  45.395  0.00  0.00    +0.000 HD
ATOM     13  H   UNL     1      13.417  12.601  46.251  0.00  0.00    +0.000 HD
ENDBRANCH   1  11
TORSDOF 1
ENDMDL
MODEL 10
REMARK VINA RESULT:    -4.239      2.073      3.449
REMARK INTER + INTRA:          -4.363
REMARK INTER:                  -4.363
REMARK INTRA:                   0.000
REMARK UNBOUND:                 0.000
REMARK  Name = opt77.pdb
REMARK  1 active torsions:
REMARK  status: ('A' for Active; 'I' for Inactive)
REMARK    1  A    between atoms: N_1  and  C_2
REMARK                            x       y       z     vdW  Elec       q    Type
REMARK                         _______ _______ _______ _____ _____    ______ ____
ROOT
ATOM      1  C   UNL     1      16.670  14.312  42.956  0.00  0.00    +0.000 C 
ATOM      2  C   UNL     1      17.817  14.500  43.985  0.00  0.00    +0.000 C 
ATOM      3  C   UNL     1      15.897  15.650  42.802  0.00  0.00    +0.000 C 
ATOM      4  C   UNL     1      15.695  13.218  43.469  0.00  0.00    +0.000 C 
ATOM      5  C   UNL     1      17.228  14.923  45.356  0.00  0.00    +0.000 C 
ATOM      6  C   UNL     1      15.309  16.077  44.172  0.00  0.00    +0.000 C 
ATOM      7  C   UNL     1      15.104  13.642  44.839  0.00  0.00    +0.000 C 
ATOM      8  C   UNL     1      16.460  16.260  45.194  0.00  0.00    +0.000 C 
ATOM      9  C   UNL     1      16.257  13.826  45.860  0.00  0.00    +0.000 C 
ATOM     10  C   UNL     1      14.339  14.980  44.680  0.00  0.00    +0.000 C 
ENDROOT
BRANCH   1  11
ATOM     11  N   UNL     1      17.237  13.906  41.657  0.00  0.00    +0.000 NA
ATOM     12  H   UNL     1      16.688  14.304  40.898  0.00  0.00    +0.000 HD
ATOM     13  H   UNL     1      18.185  14.263  41.563  0.00  0.00    +0.000 HD
ENDBRANCH   1  11
TORSDOF 1
ENDMDL
MODEL 11
REMARK VINA RESULT:    -4.222      2.016      3.362
REMARK INTER + INTRA:          -4.346
REMARK INTER:                  -4.346
REMARK INTRA:                   0.000
REMARK UNBOUND:                 0.000
REMARK  Name = opt77.pdb
REMARK  1 active torsions:
REMARK  status: ('A' for Active; 'I' for Inactive)
REMARK    1  A    between atoms: N_1  and  C_2
REMARK                            x       y       z     vdW  Elec       q    Type
REMARK                         _______ _______ _______ _____ _____    ______ ____
ROOT
ATOM      1  C   UNL     1      16.522  14.281  42.929  0.00  0.00    +0.000 C 
ATOM      2  C   UNL     1      15.585  13.174  43.481  0.00  0.00    +0.000 C 
ATOM      3  C   UNL     1      17.688  14.509  43.929  0.00  0.00    +0.000 C 
ATOM      4  C   UNL     1      15.719  15.602  42.775  0.00  0.00    +0.000 C 
ATOM      5  C   UNL     1      15.014  13.605  44.857  0.00  0.00    +0.000 C 
ATOM      6  C   UNL     1      17.121  14.939  45.307  0.00  0.00    +0.000 C 
ATOM      7  C   UNL     1      15.151  16.035  44.151  0.00  0.00    +0.000 C 
ATOM      8  C   UNL     1      16.184  13.829  45.849  0.00  0.00    +0.000 C 
ATOM      9  C   UNL     1      14.216  14.923  44.693  0.00  0.00    +0.000 C 
ATOM     10  C   UNL     1      16.319  16.256  45.146  0.00  0.00    +0.000 C 
ENDROOT
BRANCH   1  11
ATOM     11  N   UNL     1      17.056  13.866  41.620  0.00  0.00    +0.000 NA
ATOM     12  H   UNL     1      17.804  14.493  41.333  0.00  0.00    +0.000 HD
ATOM     13  H   UNL     1      17.454  12.931  41.685  0.00  0.00    +0.000 HD
ENDBRANCH   1  11
TORSDOF 1
ENDMDL
MODEL 12
REMARK VINA RESULT:    -4.221      1.530      2.462
REMARK INTER + INTRA:          -4.344
REMARK INTER:                  -4.344
REMARK INTRA:                   0.000
REMARK UNBOUND:                 0.000
REMARK  Name = opt77.pdb
REMARK  1 active torsions:
REMARK  status: ('A' for Active; 'I' for Inactive)
REMARK    1  A    between atoms: N_1  and  C_2
REMARK                            x       y       z     vdW  Elec       q    Type
REMARK                         _______ _______ _______ _____ _____    ______ ____
ROOT
ATOM      1  C   UNL     1      15.622  13.713  42.781  0.00  0.00    +0.000 C 
ATOM      2  C   UNL     1      14.716  12.597  42.198  0.00  0.00    +0.000 C 
ATOM      3  C   UNL     1      15.776  13.499  44.312  0.00  0.00    +0.000 C 
ATOM      4  C   UNL     1      14.961  15.095  42.526  0.00  0.00    +0.000 C 
ATOM      5  C   UNL     1      13.321  12.644  42.874  0.00  0.00    +0.000 C 
ATOM      6  C   UNL     1      14.382  13.544  44.991  0.00  0.00    +0.000 C 
ATOM      7  C   UNL     1      13.567  15.145  43.205  0.00  0.00    +0.000 C 
ATOM      8  C   UNL     1      13.483  12.428  44.400  0.00  0.00    +0.000 C 
ATOM      9  C   UNL     1      12.670  14.026  42.614  0.00  0.00    +0.000 C 
ATOM     10  C   UNL     1      13.727  14.925  44.730  0.00  0.00    +0.000 C 
ENDROOT
BRANCH   1  11
ATOM     11  N   UNL     1      16.944  13.664  42.131  0.00  0.00    +0.000 NA
ATOM     12  H   UNL     1      17.490  14.483  42.390  0.00  0.00    +0.000 HD
ATOM     13  H   UNL     1      17.458  12.846  42.448  0.00  0.00    +0.000 HD
ENDBRANCH   1  11
TORSDOF 1
ENDMDL
MODEL 13
REMARK VINA RESULT:    -4.135      2.082      3.036
REMARK INTER + INTRA:          -4.256
REMARK INTER:                  -4.256
REMARK INTRA:                   0.000
REMARK UNBOUND:                 0.000
REMARK  Name = opt77.pdb
REMARK  1 active torsions:
REMARK  status: ('A' for Active; 'I' for Inactive)
REMARK    1  A    between atoms: N_1  and  C_2
REMARK                            x       y       z     vdW  Elec       q    Type
REMARK                         _______ _______ _______ _____ _____    ______ ____
ROOT
ATOM      1  C   UNL     1      16.590  14.414  42.896  0.00  0.00    +0.000 C 
ATOM      2  C   UNL     1      15.849  15.777  42.865  0.00  0.00    +0.000 C 
ATOM      3  C   UNL     1      15.602  13.305  43.346  0.00  0.00    +0.000 C 
ATOM      4  C   UNL     1      17.763  14.491  43.911  0.00  0.00    +0.000 C 
ATOM      5  C   UNL     1      15.300  16.109  44.278  0.00  0.00    +0.000 C 
ATOM      6  C   UNL     1      15.049  13.634  44.757  0.00  0.00    +0.000 C 
ATOM      7  C   UNL     1      17.215  14.820  45.324  0.00  0.00    +0.000 C 
ATOM      8  C   UNL     1      14.313  14.998  44.718  0.00  0.00    +0.000 C 
ATOM      9  C   UNL     1      16.477  16.184  45.282  0.00  0.00    +0.000 C 
ATOM     10  C   UNL     1      16.225  13.713  45.765  0.00  0.00    +0.000 C 
ENDROOT
BRANCH   1  11
ATOM     11  N   UNL     1      17.112  14.108  41.552  0.00  0.00    +0.000 NA
ATOM     12  H   UNL     1      18.130  14.124  41.561  0.00  0.00    +0.000 HD
ATOM     13  H   UNL     1      16.827  13.172  41.272  0.00  0.00    +0.000 HD
ENDBRANCH   1  11
TORSDOF 1
ENDMDL
MODEL 14
REMARK VINA RESULT:    -4.098      1.899      2.906
REMARK INTER + INTRA:          -4.218
REMARK INTER:                  -4.218
REMARK INTRA:                   0.000
REMARK UNBOUND:                 0.000
REMARK  Name = opt77.pdb
REMARK  1 active torsions:
REMARK  status: ('A' for Active; 'I' for Inactive)
REMARK    1  A    between atoms: N_1  and  C_2
REMARK                            x       y       z     vdW  Elec       q    Type
REMARK                         _______ _______ _______ _____ _____    ______ ____
ROOT
ATOM      1  C   UNL     1      12.339  13.838  42.933  0.00  0.00    +0.000 C 
ATOM      2  C   UNL     1      13.246  15.064  42.641  0.00  0.00    +0.000 C 
ATOM      3  C   UNL     1      12.233  13.635  44.469  0.00  0.00    +0.000 C 
ATOM      4  C   UNL     1      12.972  12.571  42.296  0.00  0.00    +0.000 C 
ATOM      5  C   UNL     1      14.659  14.827  43.236  0.00  0.00    +0.000 C 
ATOM      6  C   UNL     1      13.644  13.400  45.067  0.00  0.00    +0.000 C 
ATOM      7  C   UNL     1      14.384  12.331  42.892  0.00  0.00    +0.000 C 
ATOM      8  C   UNL     1      14.543  14.627  44.769  0.00  0.00    +0.000 C 
ATOM      9  C   UNL     1      15.281  13.561  42.595  0.00  0.00    +0.000 C 
ATOM     10  C   UNL     1      14.271  12.135  44.425  0.00  0.00    +0.000 C 
ENDROOT
BRANCH   1  11
ATOM     11  N   UNL     1      11.001  14.070  42.362  0.00  0.00    +0.000 NA
ATOM     12  H   UNL     1      10.849  15.066  42.221  0.00  0.00    +0.000 HD
ATOM     13  H   UNL     1      10.927  13.621  41.451  0.00  0.00    +0.000 HD
ENDBRANCH   1  11
TORSDOF 1
ENDMDL
MODEL 15
REMARK VINA RESULT:    -4.096      1.906      3.192
REMARK INTER + INTRA:          -4.215
REMARK INTER:                  -4.215
REMARK INTRA:                   0.000
REMARK UNBOUND:                 0.000
REMARK  Name = opt77.pdb
REMARK  1 active torsions:
REMARK  status: ('A' for Active; 'I' for Inactive)
REMARK    1  A    between atoms: N_1  and  C_2
REMARK                            x       y       z     vdW  Elec       q    Type
REMARK                         _______ _______ _______ _____ _____    ______ ____
ROOT
ATOM      1  C   UNL     1      12.380  13.854  42.879  0.00  0.00    +0.000 C 
ATOM      2  C   UNL     1      12.241  13.606  44.405  0.00  0.00    +0.000 C 
ATOM      3  C   UNL     1      13.018  12.605  42.214  0.00  0.00    +0.000 C 
ATOM      4  C   UNL     1      13.301  15.082  42.641  0.00  0.00    +0.000 C 
ATOM      5  C   UNL     1      13.638  13.341  45.024  0.00  0.00    +0.000 C 
ATOM      6  C   UNL     1      14.415  12.336  42.832  0.00  0.00    +0.000 C 
ATOM      7  C   UNL     1      14.699  14.817  43.258  0.00  0.00    +0.000 C 
ATOM      8  C   UNL     1      14.267  12.092  44.356  0.00  0.00    +0.000 C 
ATOM      9  C   UNL     1      14.549  14.571  44.782  0.00  0.00    +0.000 C 
ATOM     10  C   UNL     1      15.328  13.566  42.594  0.00  0.00    +0.000 C 
ENDROOT
BRANCH   1  11
ATOM     11  N   UNL     1      11.049  14.108  42.299  0.00  0.00    +0.000 NA
ATOM     12  H   UNL     1      10.628  13.233  41.994  0.00  0.00    +0.000 HD
ATOM     13  H   UNL     1      10.433  14.512  43.001  0.00  0.00    +0.000 HD
ENDBRANCH   1  11
TORSDOF 1
ENDMDL
MODEL 16
REMARK VINA RESULT:    -4.033      1.877      2.897
REMARK INTER + INTRA:          -4.151
REMARK INTER:                  -4.151
REMARK INTRA:                   0.000
REMARK UNBOUND:                 0.000
REMARK  Name = opt77.pdb
REMARK  1 active torsions:
REMARK  status: ('A' for Active; 'I' for Inactive)
REMARK    1  A    between atoms: N_1  and  C_2
REMARK                            x       y       z     vdW  Elec       q    Type
REMARK                         _______ _______ _______ _____ _____    ______ ____
ROOT
ATOM      1  C   UNL     1      12.374  13.924  42.984  0.00  0.00    +0.000 C 
ATOM      2  C   UNL     1      13.025  12.657  42.365  0.00  0.00    +0.000 C 
ATOM      3  C   UNL     1      13.244  15.164  42.644  0.00  0.00    +0.000 C 
ATOM      4  C   UNL     1      12.304  13.761  44.527  0.00  0.00    +0.000 C 
ATOM      5  C   UNL     1      14.453  12.466  42.939  0.00  0.00    +0.000 C 
ATOM      6  C   UNL     1      14.674  14.975  43.214  0.00  0.00    +0.000 C 
ATOM      7  C   UNL     1      13.732  13.572  45.102  0.00  0.00    +0.000 C 
ATOM      8  C   UNL     1      15.315  13.707  42.593  0.00  0.00    +0.000 C 
ATOM      9  C   UNL     1      14.372  12.305  44.478  0.00  0.00    +0.000 C 
ATOM     10  C   UNL     1      14.596  14.810  44.754  0.00  0.00    +0.000 C 
ENDROOT
BRANCH   1  11
ATOM     11  N   UNL     1      11.017  14.096  42.437  0.00  0.00    +0.000 NA
ATOM     12  H   UNL     1      10.412  14.527  43.134  0.00  0.00    +0.000 HD
ATOM     13  H   UNL     1      11.041  14.718  41.632  0.00  0.00    +0.000 HD
ENDBRANCH   1  11
TORSDOF 1
ENDMDL
MODEL 17
REMARK VINA RESULT:    -3.986      1.944      3.242
REMARK INTER + INTRA:          -4.102
REMARK INTER:                  -4.102
REMARK INTRA:                   0.000
REMARK UNBOUND:                 0.000
REMARK  Name = opt77.pdb
REMARK  1 active torsions:
REMARK  status: ('A' for Active; 'I' for Inactive)
REMARK    1  A    between atoms: N_1  and  C_2
REMARK                            x       y       z     vdW  Elec       q    Type
REMARK                         _______ _______ _______ _____ _____    ______ ____
ROOT
ATOM      1  C   UNL     1      14.484  15.020  43.047  0.00  0.00    +0.000 C 
ATOM      2  C   UNL     1      14.548  14.838  44.587  0.00  0.00    +0.000 C 
ATOM      3  C   UNL     1      12.998  15.085  42.601  0.00  0.00    +0.000 C 
ATOM      4  C   UNL     1      15.167  13.807  42.359  0.00  0.00    +0.000 C 
ATOM      5  C   UNL     1      13.823  13.527  44.992  0.00  0.00    +0.000 C 
ATOM      6  C   UNL     1      12.269  13.777  43.007  0.00  0.00    +0.000 C 
ATOM      7  C   UNL     1      14.442  12.496  42.762  0.00  0.00    +0.000 C 
ATOM      8  C   UNL     1      12.341  13.601  44.545  0.00  0.00    +0.000 C 
ATOM      9  C   UNL     1      14.512  12.324  44.301  0.00  0.00    +0.000 C 
ATOM     10  C   UNL     1      12.958  12.570  42.319  0.00  0.00    +0.000 C 
ENDROOT
BRANCH   1  11
ATOM     11  N   UNL     1      15.177  16.264  42.670  0.00  0.00    +0.000 NA
ATOM     12  H   UNL     1      15.741  16.599  43.448  0.00  0.00    +0.000 HD
ATOM     13  H   UNL     1      15.809  16.090  41.892  0.00  0.00    +0.000 HD
ENDBRANCH   1  11
TORSDOF 1
ENDMDL
MODEL 18
REMARK VINA RESULT:    -3.985      1.955      3.173
REMARK INTER + INTRA:          -4.102
REMARK INTER:                  -4.102
REMARK INTRA:                   0.000
REMARK UNBOUND:                 0.000
REMARK  Name = opt77.pdb
REMARK  1 active torsions:
REMARK  status: ('A' for Active; 'I' for Inactive)
REMARK    1  A    between atoms: N_1  and  C_2
REMARK                            x       y       z     vdW  Elec       q    Type
REMARK                         _______ _______ _______ _____ _____    ______ ____
ROOT
ATOM      1  C   UNL     1      14.420  15.036  43.084  0.00  0.00    +0.000 C 
ATOM      2  C   UNL     1      15.124  13.805  42.454  0.00  0.00    +0.000 C 
ATOM      3  C   UNL     1      14.427  14.893  44.631  0.00  0.00    +0.000 C 
ATOM      4  C   UNL     1      12.949  15.095  42.587  0.00  0.00    +0.000 C 
ATOM      5  C   UNL     1      14.379  12.506  42.862  0.00  0.00    +0.000 C 
ATOM      6  C   UNL     1      13.684  13.595  45.042  0.00  0.00    +0.000 C 
ATOM      7  C   UNL     1      12.203  13.798  42.997  0.00  0.00    +0.000 C 
ATOM      8  C   UNL     1      14.393  12.371  44.406  0.00  0.00    +0.000 C 
ATOM      9  C   UNL     1      12.914  12.575  42.362  0.00  0.00    +0.000 C 
ATOM     10  C   UNL     1      12.219  13.659  44.540  0.00  0.00    +0.000 C 
ENDROOT
BRANCH   1  11
ATOM     11  N   UNL     1      15.130  16.265  42.690  0.00  0.00    +0.000 NA
ATOM     12  H   UNL     1      14.868  16.531  41.743  0.00  0.00    +0.000 HD
ATOM     13  H   UNL     1      14.868  17.033  43.303  0.00  0.00    +0.000 HD
ENDBRANCH   1  11
TORSDOF 1
ENDMDL
MODEL 19
REMARK VINA RESULT:    -3.977      1.955      3.165
REMARK INTER + INTRA:          -4.093
REMARK INTER:                  -4.093
REMARK INTRA:                   0.000
REMARK UNBOUND:                 0.000
REMARK  Name = opt77.pdb
REMARK  1 active torsions:
REMARK  status: ('A' for Active; 'I' for Inactive)
REMARK    1  A    between atoms: N_1  and  C_2
REMARK                            x       y       z     vdW  Elec       q    Type
REMARK                         _______ _______ _______ _____ _____    ______ ____
ROOT
ATOM      1  C   UNL     1      14.481  15.027  43.006  0.00  0.00    +0.000 C 
ATOM      2  C   UNL     1      12.992  15.059  42.569  0.00  0.00    +0.000 C 
ATOM      3  C   UNL     1      15.169  13.781  42.387  0.00  0.00    +0.000 C 
ATOM      4  C   UNL     1      14.558  14.932  44.554  0.00  0.00    +0.000 C 
ATOM      5  C   UNL     1      12.274  13.771  43.053  0.00  0.00    +0.000 C 
ATOM      6  C   UNL     1      14.453  12.492  42.867  0.00  0.00    +0.000 C 
ATOM      7  C   UNL     1      13.843  13.644  45.039  0.00  0.00    +0.000 C 
ATOM      8  C   UNL     1      12.966  12.533  42.428  0.00  0.00    +0.000 C 
ATOM      9  C   UNL     1      12.357  13.686  44.598  0.00  0.00    +0.000 C 
ATOM     10  C   UNL     1      14.530  12.405  44.413  0.00  0.00    +0.000 C 
ENDROOT
BRANCH   1  11
ATOM     11  N   UNL     1      15.154  16.254  42.546  0.00  0.00    +0.000 NA
ATOM     12  H   UNL     1      14.761  17.066  43.018  0.00  0.00    +0.000 HD
ATOM     13  H   UNL     1      16.144  16.218  42.781  0.00  0.00    +0.000 HD
ENDBRANCH   1  11
TORSDOF 1
ENDMDL
MODEL 20
REMARK VINA RESULT:    -3.946      2.388      3.670
REMARK INTER + INTRA:          -4.061
REMARK INTER:                  -4.061
REMARK INTRA:                   0.000
REMARK UNBOUND:                 0.000
REMARK  Name = opt77.pdb
REMARK  1 active torsions:
REMARK  status: ('A' for Active; 'I' for Inactive)
REMARK    1  A    between atoms: N_1  and  C_2
REMARK                            x       y       z     vdW  Elec       q    Type
REMARK                         _______ _______ _______ _____ _____    ______ ____
ROOT
ATOM      1  C   UNL     1      15.131  15.943  44.180  0.00  0.00    +0.000 C 
ATOM      2  C   UNL     1      14.258  14.826  44.813  0.00  0.00    +0.000 C 
ATOM      3  C   UNL     1      15.579  15.499  42.761  0.00  0.00    +0.000 C 
ATOM      4  C   UNL     1      16.390  16.171  45.062  0.00  0.00    +0.000 C 
ATOM      5  C   UNL     1      15.076  13.511  44.911  0.00  0.00    +0.000 C 
ATOM      6  C   UNL     1      16.395  14.184  42.855  0.00  0.00    +0.000 C 
ATOM      7  C   UNL     1      17.209  14.857  45.158  0.00  0.00    +0.000 C 
ATOM      8  C   UNL     1      15.517  13.075  43.491  0.00  0.00    +0.000 C 
ATOM      9  C   UNL     1      16.328  13.749  45.792  0.00  0.00    +0.000 C 
ATOM     10  C   UNL     1      17.648  14.417  43.738  0.00  0.00    +0.000 C 
ENDROOT
BRANCH   1  11
ATOM     11  N   UNL     1      14.349  17.189  44.094  0.00  0.00    +0.000 NA
ATOM     12  H   UNL     1      14.797  17.838  43.451  0.00  0.00    +0.000 HD
ATOM     13  H   UNL     1      13.420  16.994  43.728  0.00  0.00    +0.000 HD
ENDBRANCH   1  11
TORSDOF 1
ENDMDL
