MODEL 1
REMARK VINA RESULT:    -5.532      0.000      0.000
REMARK INTER + INTRA:          -5.957
REMARK INTER:                  -5.856
REMARK INTRA:                  -0.102
REMARK UNBOUND:                -0.102
REMARK  Name = opt68.pdb
REMARK  2 active torsions:
REMARK  status: ('A' for Active; 'I' for Inactive)
REMARK    1  A    between atoms: C_9  and  O_11
REMARK    2  A    between atoms: O_11  and  C_14
REMARK                            x       y       z     vdW  Elec       q    Type
REMARK                         _______ _______ _______ _____ _____    ______ ____
ROOT
ATOM      1  O   UNL     1       6.961  11.910  42.052  0.00  0.00    +0.000 OA
ATOM      2  C   UNL     1       7.909  12.422  42.608  0.00  0.00    +0.000 A 
ATOM      3  O   UNL     1       9.144  11.874  42.548  0.00  0.00    +0.000 OA
ATOM      4  C   UNL     1       7.831  13.669  43.375  0.00  0.00    +0.000 A 
ATOM      5  C   UNL     1      10.277  12.364  43.174  0.00  0.00    +0.000 A 
ATOM      6  C   UNL     1       8.990  14.262  43.978  0.00  0.00    +0.000 A 
ATOM      7  C   UNL     1      10.231  13.637  43.865  0.00  0.00    +0.000 A 
ATOM      8  C   UNL     1      11.447  11.524  43.109  0.00  0.00    +0.000 A 
ATOM      9  C   UNL     1      11.451  14.141  44.359  0.00  0.00    +0.000 A 
ATOM     10  C   UNL     1      12.700  12.184  43.363  0.00  0.00    +0.000 A 
ATOM     11  C   UNL     1      12.663  13.402  44.098  0.00  0.00    +0.000 A 
ATOM     12  O   UNL     1      13.860  11.519  43.659  0.00  0.00    +0.000 OA
ATOM     13  C   UNL     1      13.882  13.489  44.835  0.00  0.00    +0.000 A 
ATOM     14  C   UNL     1      14.576  12.349  44.498  0.00  0.00    +0.000 A 
ENDROOT
BRANCH   9  15
ATOM     15  O   UNL     1      11.721  15.315  45.060  0.00  0.00    +0.000 OA
ATOM     16  C   UNL     1      11.828  16.657  44.541  0.00  0.00    +0.000 C 
ENDBRANCH   9  15
TORSDOF 1
ENDMDL
MODEL 2
REMARK VINA RESULT:    -5.530      3.662      5.448
REMARK INTER + INTRA:          -5.955
REMARK INTER:                  -5.898
REMARK INTRA:                  -0.058
REMARK UNBOUND:                -0.102
REMARK  Name = opt68.pdb
REMARK  2 active torsions:
REMARK  status: ('A' for Active; 'I' for Inactive)
REMARK    1  A    between atoms: C_9  and  O_11
REMARK    2  A    between atoms: O_11  and  C_14
REMARK                            x       y       z     vdW  Elec       q    Type
REMARK                         _______ _______ _______ _____ _____    ______ ____
ROOT
ATOM      1  O   UNL     1      11.887  11.876  43.494  0.00  0.00    +0.000 OA
ATOM      2  C   UNL     1      12.982  12.370  43.661  0.00  0.00    +0.000 A 
ATOM      3  O   UNL     1      13.806  12.631  42.620  0.00  0.00    +0.000 OA
ATOM      4  C   UNL     1      13.517  12.748  44.973  0.00  0.00    +0.000 A 
ATOM      5  C   UNL     1      15.081  13.161  42.711  0.00  0.00    +0.000 A 
ATOM      6  C   UNL     1      14.801  13.373  45.116  0.00  0.00    +0.000 A 
ATOM      7  C   UNL     1      15.589  13.614  43.991  0.00  0.00    +0.000 A 
ATOM      8  C   UNL     1      15.839  13.195  41.486  0.00  0.00    +0.000 A 
ATOM      9  C   UNL     1      16.836  14.269  43.989  0.00  0.00    +0.000 A 
ATOM     10  C   UNL     1      16.953  14.105  41.470  0.00  0.00    +0.000 A 
ATOM     11  C   UNL     1      17.495  14.501  42.725  0.00  0.00    +0.000 A 
ATOM     12  O   UNL     1      17.963  14.052  40.546  0.00  0.00    +0.000 OA
ATOM     13  C   UNL     1      18.888  14.739  42.530  0.00  0.00    +0.000 A 
ATOM     14  C   UNL     1      19.100  14.491  41.192  0.00  0.00    +0.000 A 
ENDROOT
BRANCH   9  15
ATOM     15  O   UNL     1      17.574  14.802  45.044  0.00  0.00    +0.000 OA
ATOM     16  C   UNL     1      17.560  16.155  45.546  0.00  0.00    +0.000 C 
ENDBRANCH   9  15
TORSDOF 1
ENDMDL
MODEL 3
REMARK VINA RESULT:    -5.434      1.239      1.601
REMARK INTER + INTRA:          -5.853
REMARK INTER:                  -5.752
REMARK INTRA:                  -0.101
REMARK UNBOUND:                -0.102
REMARK  Name = opt68.pdb
REMARK  2 active torsions:
REMARK  status: ('A' for Active; 'I' for Inactive)
REMARK    1  A    between atoms: C_9  and  O_11
REMARK    2  A    between atoms: O_11  and  C_14
REMARK                            x       y       z     vdW  Elec       q    Type
REMARK                         _______ _______ _______ _____ _____    ______ ____
ROOT
ATOM      1  O   UNL     1       8.472  11.772  42.804  0.00  0.00    +0.000 OA
ATOM      2  C   UNL     1       9.378  12.469  43.207  0.00  0.00    +0.000 A 
ATOM      3  O   UNL     1      10.659  12.033  43.206  0.00  0.00    +0.000 OA
ATOM      4  C   UNL     1       9.199  13.834  43.711  0.00  0.00    +0.000 A 
ATOM      5  C   UNL     1      11.753  12.738  43.674  0.00  0.00    +0.000 A 
ATOM      6  C   UNL     1      10.309  14.638  44.134  0.00  0.00    +0.000 A 
ATOM      7  C   UNL     1      11.601  14.117  44.098  0.00  0.00    +0.000 A 
ATOM      8  C   UNL     1      12.996  12.011  43.731  0.00  0.00    +0.000 A 
ATOM      9  C   UNL     1      12.778  14.817  44.430  0.00  0.00    +0.000 A 
ATOM     10  C   UNL     1      14.186  12.818  43.796  0.00  0.00    +0.000 A 
ATOM     11  C   UNL     1      14.049  14.151  44.273  0.00  0.00    +0.000 A 
ATOM     12  O   UNL     1      15.411  12.333  44.171  0.00  0.00    +0.000 OA
ATOM     13  C   UNL     1      15.270  14.496  44.926  0.00  0.00    +0.000 A 
ATOM     14  C   UNL     1      16.062  13.377  44.798  0.00  0.00    +0.000 A 
ENDROOT
BRANCH   9  15
ATOM     15  O   UNL     1      12.950  16.128  44.870  0.00  0.00    +0.000 OA
ATOM     16  C   UNL     1      12.899  17.342  44.092  0.00  0.00    +0.000 C 
ENDBRANCH   9  15
TORSDOF 1
ENDMDL
MODEL 4
REMARK VINA RESULT:    -5.395      2.184      5.100
REMARK INTER + INTRA:          -5.812
REMARK INTER:                  -5.740
REMARK INTRA:                  -0.072
REMARK UNBOUND:                -0.102
REMARK  Name = opt68.pdb
REMARK  2 active torsions:
REMARK  status: ('A' for Active; 'I' for Inactive)
REMARK    1  A    between atoms: C_9  and  O_11
REMARK    2  A    between atoms: O_11  and  C_14
REMARK                            x       y       z     vdW  Elec       q    Type
REMARK                         _______ _______ _______ _____ _____    ______ ____
ROOT
ATOM      1  O   UNL     1      14.318  19.471  44.689  0.00  0.00    +0.000 OA
ATOM      2  C   UNL     1      13.847  18.353  44.671  0.00  0.00    +0.000 A 
ATOM      3  O   UNL     1      14.635  17.255  44.605  0.00  0.00    +0.000 OA
ATOM      4  C   UNL     1      12.410  18.069  44.736  0.00  0.00    +0.000 A 
ATOM      5  C   UNL     1      14.193  15.945  44.547  0.00  0.00    +0.000 A 
ATOM      6  C   UNL     1      11.902  16.728  44.759  0.00  0.00    +0.000 A 
ATOM      7  C   UNL     1      12.782  15.648  44.693  0.00  0.00    +0.000 A 
ATOM      8  C   UNL     1      15.206  14.948  44.310  0.00  0.00    +0.000 A 
ATOM      9  C   UNL     1      12.418  14.289  44.763  0.00  0.00    +0.000 A 
ATOM     10  C   UNL     1      14.847  13.601  44.669  0.00  0.00    +0.000 A 
ATOM     11  C   UNL     1      13.461  13.290  44.749  0.00  0.00    +0.000 A 
ATOM     12  O   UNL     1      15.528  12.494  44.235  0.00  0.00    +0.000 OA
ATOM     13  C   UNL     1      13.312  11.918  44.389  0.00  0.00    +0.000 A 
ATOM     14  C   UNL     1      14.593  11.484  44.129  0.00  0.00    +0.000 A 
ENDROOT
BRANCH   9  15
ATOM     15  O   UNL     1      11.162  13.699  44.895  0.00  0.00    +0.000 OA
ATOM     16  C   UNL     1      10.105  13.629  43.916  0.00  0.00    +0.000 C 
ENDBRANCH   9  15
TORSDOF 1
ENDMDL
MODEL 5
REMARK VINA RESULT:    -5.262      2.150      3.165
REMARK INTER + INTRA:          -5.671
REMARK INTER:                  -5.601
REMARK INTRA:                  -0.071
REMARK UNBOUND:                -0.102
REMARK  Name = opt68.pdb
REMARK  2 active torsions:
REMARK  status: ('A' for Active; 'I' for Inactive)
REMARK    1  A    between atoms: C_9  and  O_11
REMARK    2  A    between atoms: O_11  and  C_14
REMARK                            x       y       z     vdW  Elec       q    Type
REMARK                         _______ _______ _______ _____ _____    ______ ____
ROOT
ATOM      1  O   UNL     1      10.654  10.501  42.657  0.00  0.00    +0.000 OA
ATOM      2  C   UNL     1      11.290  11.516  42.841  0.00  0.00    +0.000 A 
ATOM      3  O   UNL     1      12.451  11.507  43.536  0.00  0.00    +0.000 OA
ATOM      4  C   UNL     1      10.896  12.833  42.329  0.00  0.00    +0.000 A 
ATOM      5  C   UNL     1      13.229  12.614  43.824  0.00  0.00    +0.000 A 
ATOM      6  C   UNL     1      11.706  13.999  42.532  0.00  0.00    +0.000 A 
ATOM      7  C   UNL     1      12.894  13.905  43.256  0.00  0.00    +0.000 A 
ATOM      8  C   UNL     1      14.334  12.392  44.722  0.00  0.00    +0.000 A 
ATOM      9  C   UNL     1      13.804  14.958  43.477  0.00  0.00    +0.000 A 
ATOM     10  C   UNL     1      15.370  13.390  44.691  0.00  0.00    +0.000 A 
ATOM     11  C   UNL     1      15.027  14.678  44.193  0.00  0.00    +0.000 A 
ATOM     12  O   UNL     1      16.320  13.528  45.669  0.00  0.00    +0.000 OA
ATOM     13  C   UNL     1      15.843  15.628  44.875  0.00  0.00    +0.000 A 
ATOM     14  C   UNL     1      16.626  14.873  45.720  0.00  0.00    +0.000 A 
ENDROOT
BRANCH   9  15
ATOM     15  O   UNL     1      13.756  16.289  43.070  0.00  0.00    +0.000 OA
ATOM     16  C   UNL     1      12.867  17.329  43.530  0.00  0.00    +0.000 C 
ENDBRANCH   9  15
TORSDOF 1
ENDMDL
MODEL 6
REMARK VINA RESULT:    -5.255      2.181      3.108
REMARK INTER + INTRA:          -5.664
REMARK INTER:                  -5.594
REMARK INTRA:                  -0.070
REMARK UNBOUND:                -0.102
REMARK  Name = opt68.pdb
REMARK  2 active torsions:
REMARK  status: ('A' for Active; 'I' for Inactive)
REMARK    1  A    between atoms: C_9  and  O_11
REMARK    2  A    between atoms: O_11  and  C_14
REMARK                            x       y       z     vdW  Elec       q    Type
REMARK                         _______ _______ _______ _____ _____    ______ ____
ROOT
ATOM      1  O   UNL     1       9.617  12.495  43.417  0.00  0.00    +0.000 OA
ATOM      2  C   UNL     1      10.490  13.293  43.683  0.00  0.00    +0.000 A 
ATOM      3  O   UNL     1      11.738  12.890  44.015  0.00  0.00    +0.000 OA
ATOM      4  C   UNL     1      10.305  14.748  43.658  0.00  0.00    +0.000 A 
ATOM      5  C   UNL     1      12.789  13.720  44.365  0.00  0.00    +0.000 A 
ATOM      6  C   UNL     1      11.382  15.654  43.935  0.00  0.00    +0.000 A 
ATOM      7  C   UNL     1      12.643  15.159  44.265  0.00  0.00    +0.000 A 
ATOM      8  C   UNL     1      13.979  13.063  44.845  0.00  0.00    +0.000 A 
ATOM      9  C   UNL     1      13.793  15.937  44.502  0.00  0.00    +0.000 A 
ATOM     10  C   UNL     1      15.183  13.849  44.799  0.00  0.00    +0.000 A 
ATOM     11  C   UNL     1      15.043  15.264  44.766  0.00  0.00    +0.000 A 
ATOM     12  O   UNL     1      16.323  13.530  45.489  0.00  0.00    +0.000 OA
ATOM     13  C   UNL     1      16.177  15.819  45.430  0.00  0.00    +0.000 A 
ATOM     14  C   UNL     1      16.929  14.729  45.806  0.00  0.00    +0.000 A 
ENDROOT
BRANCH   9  15
ATOM     15  O   UNL     1      13.962  17.320  44.486  0.00  0.00    +0.000 OA
ATOM     16  C   UNL     1      13.426  18.294  45.406  0.00  0.00    +0.000 C 
ENDBRANCH   9  15
TORSDOF 1
ENDMDL
MODEL 7
REMARK VINA RESULT:    -5.254      1.185      4.630
REMARK INTER + INTRA:          -5.662
REMARK INTER:                  -5.591
REMARK INTRA:                  -0.071
REMARK UNBOUND:                -0.102
REMARK  Name = opt68.pdb
REMARK  2 active torsions:
REMARK  status: ('A' for Active; 'I' for Inactive)
REMARK    1  A    between atoms: C_9  and  O_11
REMARK    2  A    between atoms: O_11  and  C_14
REMARK                            x       y       z     vdW  Elec       q    Type
REMARK                         _______ _______ _______ _____ _____    ______ ____
ROOT
ATOM      1  O   UNL     1      14.494  11.189  44.503  0.00  0.00    +0.000 OA
ATOM      2  C   UNL     1      13.571  11.962  44.349  0.00  0.00    +0.000 A 
ATOM      3  O   UNL     1      12.421  11.580  43.748  0.00  0.00    +0.000 OA
ATOM      4  C   UNL     1      13.589  13.357  44.802  0.00  0.00    +0.000 A 
ATOM      5  C   UNL     1      11.330  12.393  43.499  0.00  0.00    +0.000 A 
ATOM      6  C   UNL     1      12.455  14.221  44.639  0.00  0.00    +0.000 A 
ATOM      7  C   UNL     1      11.303  13.749  44.013  0.00  0.00    +0.000 A 
ATOM      8  C   UNL     1      10.283  11.816  42.695  0.00  0.00    +0.000 A 
ATOM      9  C   UNL     1      10.107  14.474  43.843  0.00  0.00    +0.000 A 
ATOM     10  C   UNL     1       9.001  12.462  42.788  0.00  0.00    +0.000 A 
ATOM     11  C   UNL     1       8.977  13.814  43.231  0.00  0.00    +0.000 A 
ATOM     12  O   UNL     1       7.988  12.271  41.885  0.00  0.00    +0.000 OA
ATOM     13  C   UNL     1       7.870  14.450  42.596  0.00  0.00    +0.000 A 
ATOM     14  C   UNL     1       7.292  13.461  41.831  0.00  0.00    +0.000 A 
ENDROOT
BRANCH   9  15
ATOM     15  O   UNL     1       9.784  15.776  44.217  0.00  0.00    +0.000 OA
ATOM     16  C   UNL     1      10.293  17.012  43.673  0.00  0.00    +0.000 C 
ENDBRANCH   9  15
TORSDOF 1
ENDMDL
MODEL 8
REMARK VINA RESULT:    -5.219      2.404      5.753
REMARK INTER + INTRA:          -5.625
REMARK INTER:                  -5.554
REMARK INTRA:                  -0.072
REMARK UNBOUND:                -0.102
REMARK  Name = opt68.pdb
REMARK  2 active torsions:
REMARK  status: ('A' for Active; 'I' for Inactive)
REMARK    1  A    between atoms: C_9  and  O_11
REMARK    2  A    between atoms: O_11  and  C_14
REMARK                            x       y       z     vdW  Elec       q    Type
REMARK                         _______ _______ _______ _____ _____    ______ ____
ROOT
ATOM      1  O   UNL     1      18.628  14.400  44.658  0.00  0.00    +0.000 OA
ATOM      2  C   UNL     1      17.426  14.562  44.636  0.00  0.00    +0.000 A 
ATOM      3  O   UNL     1      16.581  13.552  44.327  0.00  0.00    +0.000 OA
ATOM      4  C   UNL     1      16.767  15.834  44.952  0.00  0.00    +0.000 A 
ATOM      5  C   UNL     1      15.204  13.646  44.244  0.00  0.00    +0.000 A 
ATOM      6  C   UNL     1      15.339  15.965  44.959  0.00  0.00    +0.000 A 
ATOM      7  C   UNL     1      14.536  14.873  44.633  0.00  0.00    +0.000 A 
ATOM      8  C   UNL     1      14.521  12.485  43.733  0.00  0.00    +0.000 A 
ATOM      9  C   UNL     1      13.127  14.855  44.658  0.00  0.00    +0.000 A 
ATOM     10  C   UNL     1      13.117  12.405  44.039  0.00  0.00    +0.000 A 
ATOM     11  C   UNL     1      12.445  13.618  44.358  0.00  0.00    +0.000 A 
ATOM     12  O   UNL     1      12.246  11.570  43.390  0.00  0.00    +0.000 OA
ATOM     13  C   UNL     1      11.094  13.483  43.919  0.00  0.00    +0.000 A 
ATOM     14  C   UNL     1      11.027  12.217  43.382  0.00  0.00    +0.000 A 
ENDROOT
BRANCH   9  15
ATOM     15  O   UNL     1      12.220  15.862  44.978  0.00  0.00    +0.000 OA
ATOM     16  C   UNL     1      11.906  17.051  44.223  0.00  0.00    +0.000 C 
ENDBRANCH   9  15
TORSDOF 1
ENDMDL
MODEL 9
REMARK VINA RESULT:    -5.159      2.875      5.178
REMARK INTER + INTRA:          -5.562
REMARK INTER:                  -5.491
REMARK INTRA:                  -0.072
REMARK UNBOUND:                -0.102
REMARK  Name = opt68.pdb
REMARK  2 active torsions:
REMARK  status: ('A' for Active; 'I' for Inactive)
REMARK    1  A    between atoms: C_9  and  O_11
REMARK    2  A    between atoms: O_11  and  C_14
REMARK                            x       y       z     vdW  Elec       q    Type
REMARK                         _______ _______ _______ _____ _____    ______ ____
ROOT
ATOM      1  O   UNL     1      13.458  10.680  44.406  0.00  0.00    +0.000 OA
ATOM      2  C   UNL     1      13.670  11.874  44.421  0.00  0.00    +0.000 A 
ATOM      3  O   UNL     1      12.660  12.772  44.351  0.00  0.00    +0.000 OA
ATOM      4  C   UNL     1      15.007  12.467  44.534  0.00  0.00    +0.000 A 
ATOM      5  C   UNL     1      12.802  14.148  44.328  0.00  0.00    +0.000 A 
ATOM      6  C   UNL     1      15.203  13.887  44.595  0.00  0.00    +0.000 A 
ATOM      7  C   UNL     1      14.108  14.747  44.520  0.00  0.00    +0.000 A 
ATOM      8  C   UNL     1      11.600  14.902  44.078  0.00  0.00    +0.000 A 
ATOM      9  C   UNL     1      14.160  16.151  44.625  0.00  0.00    +0.000 A 
ATOM     10  C   UNL     1      11.641  16.286  44.470  0.00  0.00    +0.000 A 
ATOM     11  C   UNL     1      12.922  16.894  44.596  0.00  0.00    +0.000 A 
ATOM     12  O   UNL     1      10.743  17.225  44.035  0.00  0.00    +0.000 OA
ATOM     13  C   UNL     1      12.772  18.273  44.264  0.00  0.00    +0.000 A 
ATOM     14  C   UNL     1      11.434  18.419  43.974  0.00  0.00    +0.000 A 
ENDROOT
BRANCH   9  15
ATOM     15  O   UNL     1      15.250  17.000  44.804  0.00  0.00    +0.000 OA
ATOM     16  C   UNL     1      16.286  17.330  43.856  0.00  0.00    +0.000 C 
ENDBRANCH   9  15
TORSDOF 1
ENDMDL
MODEL 10
REMARK VINA RESULT:    -5.152      2.087      4.830
REMARK INTER + INTRA:          -5.555
REMARK INTER:                  -5.453
REMARK INTRA:                  -0.101
REMARK UNBOUND:                -0.102
REMARK  Name = opt68.pdb
REMARK  2 active torsions:
REMARK  status: ('A' for Active; 'I' for Inactive)
REMARK    1  A    between atoms: C_9  and  O_11
REMARK    2  A    between atoms: O_11  and  C_14
REMARK                            x       y       z     vdW  Elec       q    Type
REMARK                         _______ _______ _______ _____ _____    ______ ____
ROOT
ATOM      1  O   UNL     1      14.124  10.912  44.524  0.00  0.00    +0.000 OA
ATOM      2  C   UNL     1      13.767  12.068  44.448  0.00  0.00    +0.000 A 
ATOM      3  O   UNL     1      12.483  12.395  44.172  0.00  0.00    +0.000 OA
ATOM      4  C   UNL     1      14.657  13.215  44.657  0.00  0.00    +0.000 A 
ATOM      5  C   UNL     1      11.988  13.679  44.031  0.00  0.00    +0.000 A 
ATOM      6  C   UNL     1      14.178  14.566  44.601  0.00  0.00    +0.000 A 
ATOM      7  C   UNL     1      12.837  14.820  44.315  0.00  0.00    +0.000 A 
ATOM      8  C   UNL     1      10.627  13.784  43.570  0.00  0.00    +0.000 A 
ATOM      9  C   UNL     1      12.231  16.091  44.287  0.00  0.00    +0.000 A 
ATOM     10  C   UNL     1       9.979  15.043  43.826  0.00  0.00    +0.000 A 
ATOM     11  C   UNL     1      10.811  16.177  44.042  0.00  0.00    +0.000 A 
ATOM     12  O   UNL     1       8.829  15.445  43.200  0.00  0.00    +0.000 OA
ATOM     13  C   UNL     1      10.104  17.319  43.561  0.00  0.00    +0.000 A 
ATOM     14  C   UNL     1       8.905  16.820  43.104  0.00  0.00    +0.000 A 
ENDROOT
BRANCH   9  15
ATOM     15  O   UNL     1      12.779  17.353  44.508  0.00  0.00    +0.000 OA
ATOM     16  C   UNL     1      13.053  17.997  45.770  0.00  0.00    +0.000 C 
ENDBRANCH   9  15
TORSDOF 1
ENDMDL
MODEL 11
REMARK VINA RESULT:    -5.091      2.073      5.943
REMARK INTER + INTRA:          -5.490
REMARK INTER:                  -5.392
REMARK INTRA:                  -0.098
REMARK UNBOUND:                -0.102
REMARK  Name = opt68.pdb
REMARK  2 active torsions:
REMARK  status: ('A' for Active; 'I' for Inactive)
REMARK    1  A    between atoms: C_9  and  O_11
REMARK    2  A    between atoms: O_11  and  C_14
REMARK                            x       y       z     vdW  Elec       q    Type
REMARK                         _______ _______ _______ _____ _____    ______ ____
ROOT
ATOM      1  O   UNL     1      16.923  15.338  45.151  0.00  0.00    +0.000 OA
ATOM      2  C   UNL     1      15.797  14.931  44.958  0.00  0.00    +0.000 A 
ATOM      3  O   UNL     1      14.775  15.776  44.690  0.00  0.00    +0.000 OA
ATOM      4  C   UNL     1      15.427  13.512  44.975  0.00  0.00    +0.000 A 
ATOM      5  C   UNL     1      13.456  15.411  44.489  0.00  0.00    +0.000 A 
ATOM      6  C   UNL     1      14.090  13.074  44.695  0.00  0.00    +0.000 A 
ATOM      7  C   UNL     1      13.093  14.009  44.422  0.00  0.00    +0.000 A 
ATOM      8  C   UNL     1      12.510  16.494  44.387  0.00  0.00    +0.000 A 
ATOM      9  C   UNL     1      11.760  13.709  44.076  0.00  0.00    +0.000 A 
ATOM     10  C   UNL     1      11.255  16.165  43.766  0.00  0.00    +0.000 A 
ATOM     11  C   UNL     1      10.866  14.797  43.756  0.00  0.00    +0.000 A 
ATOM     12  O   UNL     1      10.134  16.947  43.862  0.00  0.00    +0.000 OA
ATOM     13  C   UNL     1       9.440  14.760  43.803  0.00  0.00    +0.000 A 
ATOM     14  C   UNL     1       9.058  16.083  43.825  0.00  0.00    +0.000 A 
ENDROOT
BRANCH   9  15
ATOM     15  O   UNL     1      11.121  12.479  43.940  0.00  0.00    +0.000 OA
ATOM     16  C   UNL     1      11.236  11.531  42.858  0.00  0.00    +0.000 C 
ENDBRANCH   9  15
TORSDOF 1
ENDMDL
MODEL 12
REMARK VINA RESULT:    -5.088      3.447      5.418
REMARK INTER + INTRA:          -5.488
REMARK INTER:                  -5.416
REMARK INTRA:                  -0.072
REMARK UNBOUND:                -0.102
REMARK  Name = opt68.pdb
REMARK  2 active torsions:
REMARK  status: ('A' for Active; 'I' for Inactive)
REMARK    1  A    between atoms: C_9  and  O_11
REMARK    2  A    between atoms: O_11  and  C_14
REMARK                            x       y       z     vdW  Elec       q    Type
REMARK                         _______ _______ _______ _____ _____    ______ ____
ROOT
ATOM      1  O   UNL     1      13.432  11.210  44.496  0.00  0.00    +0.000 OA
ATOM      2  C   UNL     1      13.677  12.395  44.579  0.00  0.00    +0.000 A 
ATOM      3  O   UNL     1      14.940  12.845  44.758  0.00  0.00    +0.000 OA
ATOM      4  C   UNL     1      12.662  13.449  44.479  0.00  0.00    +0.000 A 
ATOM      5  C   UNL     1      15.314  14.170  44.897  0.00  0.00    +0.000 A 
ATOM      6  C   UNL     1      13.007  14.841  44.537  0.00  0.00    +0.000 A 
ATOM      7  C   UNL     1      14.335  15.224  44.718  0.00  0.00    +0.000 A 
ATOM      8  C   UNL     1      16.693  14.403  45.247  0.00  0.00    +0.000 A 
ATOM      9  C   UNL     1      14.811  16.550  44.735  0.00  0.00    +0.000 A 
ATOM     10  C   UNL     1      17.187  15.727  44.977  0.00  0.00    +0.000 A 
ATOM     11  C   UNL     1      16.231  16.775  44.866  0.00  0.00    +0.000 A 
ATOM     12  O   UNL     1      18.340  16.231  45.519  0.00  0.00    +0.000 OA
ATOM     13  C   UNL     1      16.858  17.972  45.321  0.00  0.00    +0.000 A 
ATOM     14  C   UNL     1      18.136  17.589  45.663  0.00  0.00    +0.000 A 
ENDROOT
BRANCH   9  15
ATOM     15  O   UNL     1      14.123  17.754  44.599  0.00  0.00    +0.000 OA
ATOM     16  C   UNL     1      13.202  18.364  45.528  0.00  0.00    +0.000 C 
ENDBRANCH   9  15
TORSDOF 1
ENDMDL
MODEL 13
REMARK VINA RESULT:    -5.041      2.453      3.328
REMARK INTER + INTRA:          -5.437
REMARK INTER:                  -5.367
REMARK INTRA:                  -0.071
REMARK UNBOUND:                -0.102
REMARK  Name = opt68.pdb
REMARK  2 active torsions:
REMARK  status: ('A' for Active; 'I' for Inactive)
REMARK    1  A    between atoms: C_9  and  O_11
REMARK    2  A    between atoms: O_11  and  C_14
REMARK                            x       y       z     vdW  Elec       q    Type
REMARK                         _______ _______ _______ _____ _____    ______ ____
ROOT
ATOM      1  O   UNL     1       9.146  13.485  44.567  0.00  0.00    +0.000 OA
ATOM      2  C   UNL     1      10.221  13.933  44.232  0.00  0.00    +0.000 A 
ATOM      3  O   UNL     1      11.378  13.451  44.742  0.00  0.00    +0.000 OA
ATOM      4  C   UNL     1      10.389  15.009  43.250  0.00  0.00    +0.000 A 
ATOM      5  C   UNL     1      12.648  13.917  44.449  0.00  0.00    +0.000 A 
ATOM      6  C   UNL     1      11.686  15.476  42.851  0.00  0.00    +0.000 A 
ATOM      7  C   UNL     1      12.832  14.923  43.421  0.00  0.00    +0.000 A 
ATOM      8  C   UNL     1      13.720  13.366  45.238  0.00  0.00    +0.000 A 
ATOM      9  C   UNL     1      14.158  15.250  43.076  0.00  0.00    +0.000 A 
ATOM     10  C   UNL     1      15.038  13.504  44.677  0.00  0.00    +0.000 A 
ATOM     11  C   UNL     1      15.237  14.533  43.714  0.00  0.00    +0.000 A 
ATOM     12  O   UNL     1      16.190  13.340  45.399  0.00  0.00    +0.000 OA
ATOM     13  C   UNL     1      16.589  14.974  43.838  0.00  0.00    +0.000 A 
ATOM     14  C   UNL     1      17.120  14.192  44.839  0.00  0.00    +0.000 A 
ENDROOT
BRANCH   9  15
ATOM     15  O   UNL     1      14.647  16.166  42.147  0.00  0.00    +0.000 OA
ATOM     16  C   UNL     1      14.598  17.607  42.206  0.00  0.00    +0.000 C 
ENDBRANCH   9  15
TORSDOF 1
ENDMDL
MODEL 14
REMARK VINA RESULT:    -4.943      2.978      5.296
REMARK INTER + INTRA:          -5.333
REMARK INTER:                  -5.246
REMARK INTRA:                  -0.088
REMARK UNBOUND:                -0.102
REMARK  Name = opt68.pdb
REMARK  2 active torsions:
REMARK  status: ('A' for Active; 'I' for Inactive)
REMARK    1  A    between atoms: C_9  and  O_11
REMARK    2  A    between atoms: O_11  and  C_14
REMARK                            x       y       z     vdW  Elec       q    Type
REMARK                         _______ _______ _______ _____ _____    ______ ____
ROOT
ATOM      1  O   UNL     1      12.107  19.101  45.215  0.00  0.00    +0.000 OA
ATOM      2  C   UNL     1      12.818  18.122  45.132  0.00  0.00    +0.000 A 
ATOM      3  O   UNL     1      12.310  16.903  44.839  0.00  0.00    +0.000 OA
ATOM      4  C   UNL     1      14.272  18.149  45.318  0.00  0.00    +0.000 A 
ATOM      5  C   UNL     1      13.032  15.725  44.755  0.00  0.00    +0.000 A 
ATOM      6  C   UNL     1      15.078  16.972  45.164  0.00  0.00    +0.000 A 
ATOM      7  C   UNL     1      14.478  15.752  44.855  0.00  0.00    +0.000 A 
ATOM      8  C   UNL     1      12.258  14.520  44.597  0.00  0.00    +0.000 A 
ATOM      9  C   UNL     1      15.158  14.540  44.622  0.00  0.00    +0.000 A 
ATOM     10  C   UNL     1      12.977  13.382  44.088  0.00  0.00    +0.000 A 
ATOM     11  C   UNL     1      14.391  13.376  44.244  0.00  0.00    +0.000 A 
ATOM     12  O   UNL     1      12.514  12.095  44.169  0.00  0.00    +0.000 OA
ATOM     13  C   UNL     1      14.798  12.016  44.379  0.00  0.00    +0.000 A 
ATOM     14  C   UNL     1      13.631  11.292  44.286  0.00  0.00    +0.000 A 
ENDROOT
BRANCH   9  15
ATOM     15  O   UNL     1      16.521  14.253  44.652  0.00  0.00    +0.000 OA
ATOM     16  C   UNL     1      17.484  14.391  43.586  0.00  0.00    +0.000 C 
ENDBRANCH   9  15
TORSDOF 1
ENDMDL
MODEL 15
REMARK VINA RESULT:    -4.766      1.599      3.248
REMARK INTER + INTRA:          -5.147
REMARK INTER:                  -5.075
REMARK INTRA:                  -0.072
REMARK UNBOUND:                -0.102
REMARK  Name = opt68.pdb
REMARK  2 active torsions:
REMARK  status: ('A' for Active; 'I' for Inactive)
REMARK    1  A    between atoms: C_9  and  O_11
REMARK    2  A    between atoms: O_11  and  C_14
REMARK                            x       y       z     vdW  Elec       q    Type
REMARK                         _______ _______ _______ _____ _____    ______ ____
ROOT
ATOM      1  O   UNL     1       6.323  14.132  42.649  0.00  0.00    +0.000 OA
ATOM      2  C   UNL     1       7.483  13.986  42.972  0.00  0.00    +0.000 A 
ATOM      3  O   UNL     1       8.281  15.046  43.236  0.00  0.00    +0.000 OA
ATOM      4  C   UNL     1       8.131  12.680  43.126  0.00  0.00    +0.000 A 
ATOM      5  C   UNL     1       9.621  14.983  43.579  0.00  0.00    +0.000 A 
ATOM      6  C   UNL     1       9.494  12.556  43.556  0.00  0.00    +0.000 A 
ATOM      7  C   UNL     1      10.250  13.699  43.814  0.00  0.00    +0.000 A 
ATOM      8  C   UNL     1      10.313  16.245  43.649  0.00  0.00    +0.000 A 
ATOM      9  C   UNL     1      11.575  13.714  44.294  0.00  0.00    +0.000 A 
ATOM     10  C   UNL     1      11.541  16.238  44.399  0.00  0.00    +0.000 A 
ATOM     11  C   UNL     1      12.195  14.987  44.577  0.00  0.00    +0.000 A 
ATOM     12  O   UNL     1      12.485  17.227  44.317  0.00  0.00    +0.000 OA
ATOM     13  C   UNL     1      13.596  15.247  44.649  0.00  0.00    +0.000 A 
ATOM     14  C   UNL     1      13.704  16.614  44.526  0.00  0.00    +0.000 A 
ENDROOT
BRANCH   9  15
ATOM     15  O   UNL     1      12.432  12.660  44.604  0.00  0.00    +0.000 OA
ATOM     16  C   UNL     1      13.075  11.739  43.698  0.00  0.00    +0.000 C 
ENDBRANCH   9  15
TORSDOF 1
ENDMDL
MODEL 16
REMARK VINA RESULT:    -4.733      2.900      6.014
REMARK INTER + INTRA:          -5.112
REMARK INTER:                  -5.040
REMARK INTRA:                  -0.072
REMARK UNBOUND:                -0.102
REMARK  Name = opt68.pdb
REMARK  2 active torsions:
REMARK  status: ('A' for Active; 'I' for Inactive)
REMARK    1  A    between atoms: C_9  and  O_11
REMARK    2  A    between atoms: O_11  and  C_14
REMARK                            x       y       z     vdW  Elec       q    Type
REMARK                         _______ _______ _______ _____ _____    ______ ____
ROOT
ATOM      1  O   UNL     1      18.392  16.490  45.688  0.00  0.00    +0.000 OA
ATOM      2  C   UNL     1      17.257  16.206  45.368  0.00  0.00    +0.000 A 
ATOM      3  O   UNL     1      16.867  14.919  45.215  0.00  0.00    +0.000 OA
ATOM      4  C   UNL     1      16.200  17.195  45.135  0.00  0.00    +0.000 A 
ATOM      5  C   UNL     1      15.610  14.497  44.822  0.00  0.00    +0.000 A 
ATOM      6  C   UNL     1      14.860  16.808  44.803  0.00  0.00    +0.000 A 
ATOM      7  C   UNL     1      14.536  15.459  44.668  0.00  0.00    +0.000 A 
ATOM      8  C   UNL     1      15.471  13.086  44.562  0.00  0.00    +0.000 A 
ATOM      9  C   UNL     1      13.251  14.946  44.403  0.00  0.00    +0.000 A 
ATOM     10  C   UNL     1      14.123  12.581  44.578  0.00  0.00    +0.000 A 
ATOM     11  C   UNL     1      13.070  13.514  44.362  0.00  0.00    +0.000 A 
ATOM     12  O   UNL     1      13.761  11.370  44.050  0.00  0.00    +0.000 OA
ATOM     13  C   UNL     1      12.010  12.814  43.714  0.00  0.00    +0.000 A 
ATOM     14  C   UNL     1      12.469  11.522  43.589  0.00  0.00    +0.000 A 
ENDROOT
BRANCH   9  15
ATOM     15  O   UNL     1      12.042  15.609  44.202  0.00  0.00    +0.000 OA
ATOM     16  C   UNL     1      11.638  16.400  43.065  0.00  0.00    +0.000 C 
ENDBRANCH   9  15
TORSDOF 1
ENDMDL
MODEL 17
REMARK VINA RESULT:    -4.699      2.495      3.733
REMARK INTER + INTRA:          -5.075
REMARK INTER:                  -5.009
REMARK INTRA:                  -0.066
REMARK UNBOUND:                -0.102
REMARK  Name = opt68.pdb
REMARK  2 active torsions:
REMARK  status: ('A' for Active; 'I' for Inactive)
REMARK    1  A    between atoms: C_9  and  O_11
REMARK    2  A    between atoms: O_11  and  C_14
REMARK                            x       y       z     vdW  Elec       q    Type
REMARK                         _______ _______ _______ _____ _____    ______ ____
ROOT
ATOM      1  O   UNL     1       6.300   9.368  43.452  0.00  0.00    +0.000 OA
ATOM      2  C   UNL     1       6.545  10.554  43.510  0.00  0.00    +0.000 A 
ATOM      3  O   UNL     1       7.801  11.026  43.336  0.00  0.00    +0.000 OA
ATOM      4  C   UNL     1       5.533  11.588  43.750  0.00  0.00    +0.000 A 
ATOM      5  C   UNL     1       8.185  12.353  43.416  0.00  0.00    +0.000 A 
ATOM      6  C   UNL     1       5.864  12.984  43.764  0.00  0.00    +0.000 A 
ATOM      7  C   UNL     1       7.184  13.390  43.571  0.00  0.00    +0.000 A 
ATOM      8  C   UNL     1       9.603  12.604  43.365  0.00  0.00    +0.000 A 
ATOM      9  C   UNL     1       7.630  14.724  43.505  0.00  0.00    +0.000 A 
ATOM     10  C   UNL     1       9.984  13.947  43.018  0.00  0.00    +0.000 A 
ATOM     11  C   UNL     1       9.025  14.977  43.230  0.00  0.00    +0.000 A 
ATOM     12  O   UNL     1      11.238  14.457  43.226  0.00  0.00    +0.000 OA
ATOM     13  C   UNL     1       9.744  16.171  43.535  0.00  0.00    +0.000 A 
ATOM     14  C   UNL     1      11.069  15.803  43.478  0.00  0.00    +0.000 A 
ENDROOT
BRANCH   9  15
ATOM     15  O   UNL     1       6.919  15.917  43.622  0.00  0.00    +0.000 OA
ATOM     16  C   UNL     1       6.372  16.514  44.817  0.00  0.00    +0.000 C 
ENDBRANCH   9  15
TORSDOF 1
ENDMDL
MODEL 18
REMARK VINA RESULT:    -4.674      1.490      1.747
REMARK INTER + INTRA:          -5.049
REMARK INTER:                  -4.949
REMARK INTRA:                  -0.100
REMARK UNBOUND:                -0.102
REMARK  Name = opt68.pdb
REMARK  2 active torsions:
REMARK  status: ('A' for Active; 'I' for Inactive)
REMARK    1  A    between atoms: C_9  and  O_11
REMARK    2  A    between atoms: O_11  and  C_14
REMARK                            x       y       z     vdW  Elec       q    Type
REMARK                         _______ _______ _______ _____ _____    ______ ____
ROOT
ATOM      1  O   UNL     1       7.195  14.952  42.427  0.00  0.00    +0.000 OA
ATOM      2  C   UNL     1       8.325  14.922  42.867  0.00  0.00    +0.000 A 
ATOM      3  O   UNL     1       9.072  13.795  42.819  0.00  0.00    +0.000 OA
ATOM      4  C   UNL     1       8.999  16.077  43.469  0.00  0.00    +0.000 A 
ATOM      5  C   UNL     1      10.353  13.653  43.323  0.00  0.00    +0.000 A 
ATOM      6  C   UNL     1      10.354  16.005  43.934  0.00  0.00    +0.000 A 
ATOM      7  C   UNL     1      11.060  14.806  43.845  0.00  0.00    +0.000 A 
ATOM      8  C   UNL     1      10.891  12.316  43.312  0.00  0.00    +0.000 A 
ATOM      9  C   UNL     1      12.408  14.619  44.211  0.00  0.00    +0.000 A 
ATOM     10  C   UNL     1      12.322  12.221  43.419  0.00  0.00    +0.000 A 
ATOM     11  C   UNL     1      13.013  13.326  43.991  0.00  0.00    +0.000 A 
ATOM     12  O   UNL     1      12.984  11.066  43.743  0.00  0.00    +0.000 OA
ATOM     13  C   UNL     1      14.167  12.810  44.652  0.00  0.00    +0.000 A 
ATOM     14  C   UNL     1      14.115  11.451  44.433  0.00  0.00    +0.000 A 
ENDROOT
BRANCH   9  15
ATOM     15  O   UNL     1      13.329  15.520  44.740  0.00  0.00    +0.000 OA
ATOM     16  C   UNL     1      14.125  16.496  44.036  0.00  0.00    +0.000 C 
ENDBRANCH   9  15
TORSDOF 1
ENDMDL
MODEL 19
REMARK VINA RESULT:    -4.562      1.787      5.113
REMARK INTER + INTRA:          -4.930
REMARK INTER:                  -4.828
REMARK INTRA:                  -0.102
REMARK UNBOUND:                -0.102
REMARK  Name = opt68.pdb
REMARK  2 active torsions:
REMARK  status: ('A' for Active; 'I' for Inactive)
REMARK    1  A    between atoms: C_9  and  O_11
REMARK    2  A    between atoms: O_11  and  C_14
REMARK                            x       y       z     vdW  Elec       q    Type
REMARK                         _______ _______ _______ _____ _____    ______ ____
ROOT
ATOM      1  O   UNL     1      13.505  14.704  44.596  0.00  0.00    +0.000 OA
ATOM      2  C   UNL     1      12.336  14.792  44.288  0.00  0.00    +0.000 A 
ATOM      3  O   UNL     1      11.583  13.694  44.047  0.00  0.00    +0.000 OA
ATOM      4  C   UNL     1      11.617  16.064  44.161  0.00  0.00    +0.000 A 
ATOM      5  C   UNL     1      10.255  13.693  43.659  0.00  0.00    +0.000 A 
ATOM      6  C   UNL     1      10.220  16.116  43.839  0.00  0.00    +0.000 A 
ATOM      7  C   UNL     1       9.512  14.937  43.610  0.00  0.00    +0.000 A 
ATOM      8  C   UNL     1       9.705  12.412  43.294  0.00  0.00    +0.000 A 
ATOM      9  C   UNL     1       8.132  14.848  43.343  0.00  0.00    +0.000 A 
ATOM     10  C   UNL     1       8.269  12.325  43.310  0.00  0.00    +0.000 A 
ATOM     11  C   UNL     1       7.537  13.540  43.197  0.00  0.00    +0.000 A 
ATOM     12  O   UNL     1       7.564  11.321  42.700  0.00  0.00    +0.000 OA
ATOM     13  C   UNL     1       6.314  13.238  42.527  0.00  0.00    +0.000 A 
ATOM     14  C   UNL     1       6.372  11.883  42.290  0.00  0.00    +0.000 A 
ENDROOT
BRANCH   9  15
ATOM     15  O   UNL     1       7.171  15.850  43.229  0.00  0.00    +0.000 OA
ATOM     16  C   UNL     1       6.491  16.557  44.287  0.00  0.00    +0.000 C 
ENDBRANCH   9  15
TORSDOF 1
ENDMDL
MODEL 20
REMARK VINA RESULT:    -4.560      2.557      4.074
REMARK INTER + INTRA:          -4.928
REMARK INTER:                  -4.864
REMARK INTRA:                  -0.065
REMARK UNBOUND:                -0.102
REMARK  Name = opt68.pdb
REMARK  2 active torsions:
REMARK  status: ('A' for Active; 'I' for Inactive)
REMARK    1  A    between atoms: C_9  and  O_11
REMARK    2  A    between atoms: O_11  and  C_14
REMARK                            x       y       z     vdW  Elec       q    Type
REMARK                         _______ _______ _______ _____ _____    ______ ____
ROOT
ATOM      1  O   UNL     1       9.032  17.838  43.433  0.00  0.00    +0.000 OA
ATOM      2  C   UNL     1       9.835  16.954  43.644  0.00  0.00    +0.000 A 
ATOM      3  O   UNL     1      11.132  17.227  43.912  0.00  0.00    +0.000 OA
ATOM      4  C   UNL     1       9.497  15.527  43.649  0.00  0.00    +0.000 A 
ATOM      5  C   UNL     1      12.126  16.290  44.132  0.00  0.00    +0.000 A 
ATOM      6  C   UNL     1      10.473  14.519  43.950  0.00  0.00    +0.000 A 
ATOM      7  C   UNL     1      11.791  14.882  44.222  0.00  0.00    +0.000 A 
ATOM      8  C   UNL     1      13.469  16.805  44.231  0.00  0.00    +0.000 A 
ATOM      9  C   UNL     1      12.827  13.999  44.585  0.00  0.00    +0.000 A 
ATOM     10  C   UNL     1      14.422  15.938  44.870  0.00  0.00    +0.000 A 
ATOM     11  C   UNL     1      14.125  14.546  44.902  0.00  0.00    +0.000 A 
ATOM     12  O   UNL     1      15.779  16.102  44.776  0.00  0.00    +0.000 OA
ATOM     13  C   UNL     1      15.368  13.846  44.870  0.00  0.00    +0.000 A 
ATOM     14  C   UNL     1      16.324  14.835  44.835  0.00  0.00    +0.000 A 
ENDROOT
BRANCH   9  15
ATOM     15  O   UNL     1      12.814  12.615  44.745  0.00  0.00    +0.000 OA
ATOM     16  C   UNL     1      12.778  11.601  43.719  0.00  0.00    +0.000 C 
ENDBRANCH   9  15
TORSDOF 1
ENDMDL
