MODEL 1
REMARK VINA RESULT:    -6.777      0.000      0.000
REMARK INTER + INTRA:         -10.912
REMARK INTER:                  -9.353
REMARK INTRA:                  -1.560
REMARK UNBOUND:                -1.560
REMARK  Name = opt27.pdb
REMARK  10 active torsions:
REMARK  status: ('A' for Active; 'I' for Inactive)
REMARK    1  A    between atoms: C_6  and  O_10
REMARK    2  A    between atoms: C_7  and  C_12
REMARK    3  A    between atoms: C_9  and  C_14
REMARK    4  A    between atoms: C_13  and  O_17
REMARK    5  A    between atoms: C_19  and  O_23
REMARK    6  A    between atoms: C_22  and  C_27
REMARK    7  A    between atoms: C_24  and  O_28
REMARK    8  A    between atoms: C_25  and  O_29
REMARK    9  A    between atoms: C_26  and  O_30
REMARK   10  A    between atoms: C_27  and  O_31
REMARK                            x       y       z     vdW  Elec       q    Type
REMARK                         _______ _______ _______ _____ _____    ______ ____
ROOT
ATOM      1  O   UNL     1      14.503  13.571  45.286  0.00  0.00    +0.000 OA
ATOM      2  C   UNL     1      13.461  13.956  44.790  0.00  0.00    +0.000 A 
ATOM      3  C   UNL     1      12.556  13.110  43.994  0.00  0.00    +0.000 A 
ATOM      4  C   UNL     1      13.021  15.366  44.846  0.00  0.00    +0.000 A 
ATOM      5  C   UNL     1      11.428  13.736  43.475  0.00  0.00    +0.000 A 
ATOM      6  C   UNL     1      12.879  11.769  43.565  0.00  0.00    +0.000 A 
ATOM      7  C   UNL     1      12.086  15.687  44.303  0.00  0.00    +0.000 A 
ATOM      8  O   UNL     1      11.324  15.109  43.707  0.00  0.00    +0.000 OA
ATOM      9  C   UNL     1      10.651  13.091  42.423  0.00  0.00    +0.000 A 
ATOM     10  C   UNL     1      12.304  11.290  42.406  0.00  0.00    +0.000 A 
ATOM     11  C   UNL     1      11.256  11.970  41.808  0.00  0.00    +0.000 A 
ENDROOT
BRANCH   9  12
ATOM     12  C   UNL     1       9.286  13.477  41.796  0.00  0.00    +0.000 C 
ATOM     13  O   UNL     1       8.353  12.381  42.004  0.00  0.00    +0.000 OA
ATOM     14  C   UNL     1       8.492  14.781  42.127  0.00  0.00    +0.000 C 
ATOM     15  C   UNL     1       7.867  12.224  43.356  0.00  0.00    +0.000 C 
ATOM     16  C   UNL     1       7.566  14.718  43.390  0.00  0.00    +0.000 C 
ATOM     17  C   UNL     1       6.831  13.357  43.530  0.00  0.00    +0.000 C 
BRANCH  14  18
ATOM     18  O   UNL     1       7.635  14.959  40.990  0.00  0.00    +0.000 OA
ATOM     19  H   UNL     1       6.719  14.787  41.300  0.00  0.00    +0.000 HD
ENDBRANCH  14  18
BRANCH  16  20
ATOM     20  O   UNL     1       6.566  15.757  43.317  0.00  0.00    +0.000 OA
ATOM     21  H   UNL     1       6.508  16.233  44.181  0.00  0.00    +0.000 HD
ENDBRANCH  16  20
BRANCH  17  22
ATOM     22  O   UNL     1       6.122  13.278  44.781  0.00  0.00    +0.000 OA
ATOM     23  H   UNL     1       5.702  12.405  44.906  0.00  0.00    +0.000 HD
ENDBRANCH  17  22
BRANCH  15  24
ATOM     24  C   UNL     1       7.320  10.786  43.458  0.00  0.00    +0.000 C 
BRANCH  24  25
ATOM     25  O   UNL     1       5.896  10.796  43.420  0.00  0.00    +0.000 OA
ATOM     26  H   UNL     1       5.599  10.779  44.349  0.00  0.00    +0.000 HD
ENDBRANCH  24  25
ENDBRANCH  15  24
ENDBRANCH   9  12
BRANCH   7  27
ATOM     27  C   UNL     1      11.968  17.184  44.311  0.00  0.00    +0.000 A 
ATOM     28  C   UNL     1      12.811  17.975  45.113  0.00  0.00    +0.000 A 
ATOM     29  C   UNL     1      10.953  17.809  43.565  0.00  0.00    +0.000 A 
ATOM     30  C   UNL     1      12.650  19.361  45.144  0.00  0.00    +0.000 A 
ATOM     31  C   UNL     1      10.805  19.193  43.603  0.00  0.00    +0.000 A 
ATOM     32  C   UNL     1      11.654  19.972  44.384  0.00  0.00    +0.000 A 
BRANCH  32  33
ATOM     33  O   UNL     1      11.493  21.326  44.397  0.00  0.00    +0.000 OA
ATOM     34  H   UNL     1      11.013  21.626  43.605  0.00  0.00    +0.000 HD
ENDBRANCH  32  33
ENDBRANCH   7  27
BRANCH   6  35
ATOM     35  O   UNL     1      13.888  11.022  44.098  0.00  0.00    +0.000 OA
ATOM     36  H   UNL     1      13.659  10.791  45.018  0.00  0.00    +0.000 HD
ENDBRANCH   6  35
BRANCH  11  37
ATOM     37  O   UNL     1      10.801  11.456  40.629  0.00  0.00    +0.000 OA
ATOM     38  H   UNL     1       9.908  11.823  40.471  0.00  0.00    +0.000 HD
ENDBRANCH  11  37
TORSDOF 10
ENDMDL
MODEL 2
REMARK VINA RESULT:    -6.600      2.010      5.661
REMARK INTER + INTRA:         -10.668
REMARK INTER:                  -9.347
REMARK INTRA:                  -1.321
REMARK UNBOUND:                -1.560
REMARK  Name = opt27.pdb
REMARK  10 active torsions:
REMARK  status: ('A' for Active; 'I' for Inactive)
REMARK    1  A    between atoms: C_6  and  O_10
REMARK    2  A    between atoms: C_7  and  C_12
REMARK    3  A    between atoms: C_9  and  C_14
REMARK    4  A    between atoms: C_13  and  O_17
REMARK    5  A    between atoms: C_19  and  O_23
REMARK    6  A    between atoms: C_22  and  C_27
REMARK    7  A    between atoms: C_24  and  O_28
REMARK    8  A    between atoms: C_25  and  O_29
REMARK    9  A    between atoms: C_26  and  O_30
REMARK   10  A    between atoms: C_27  and  O_31
REMARK                            x       y       z     vdW  Elec       q    Type
REMARK                         _______ _______ _______ _____ _____    ______ ____
ROOT
ATOM      1  O   UNL     1      12.198  17.997  42.117  0.00  0.00    +0.000 OA
ATOM      2  C   UNL     1      11.522  17.032  42.419  0.00  0.00    +0.000 A 
ATOM      3  C   UNL     1      10.063  17.067  42.620  0.00  0.00    +0.000 A 
ATOM      4  C   UNL     1      12.107  15.709  42.723  0.00  0.00    +0.000 A 
ATOM      5  C   UNL     1       9.467  15.869  43.000  0.00  0.00    +0.000 A 
ATOM      6  C   UNL     1       9.285  18.282  42.646  0.00  0.00    +0.000 A 
ATOM      7  C   UNL     1      11.445  14.866  43.074  0.00  0.00    +0.000 A 
ATOM      8  O   UNL     1      10.330  14.794  43.220  0.00  0.00    +0.000 OA
ATOM      9  C   UNL     1       8.110  15.864  43.533  0.00  0.00    +0.000 A 
ATOM     10  C   UNL     1       8.119  18.304  43.385  0.00  0.00    +0.000 A 
ATOM     11  C   UNL     1       7.576  17.128  43.876  0.00  0.00    +0.000 A 
ENDROOT
BRANCH   9  12
ATOM     12  C   UNL     1       7.163  14.682  43.869  0.00  0.00    +0.000 C 
ATOM     13  O   UNL     1       6.116  14.625  42.861  0.00  0.00    +0.000 OA
ATOM     14  C   UNL     1       7.625  13.206  44.087  0.00  0.00    +0.000 C 
ATOM     15  C   UNL     1       6.526  14.135  41.564  0.00  0.00    +0.000 C 
ATOM     16  C   UNL     1       7.777  12.337  42.792  0.00  0.00    +0.000 C 
ATOM     17  C   UNL     1       6.658  12.608  41.750  0.00  0.00    +0.000 C 
BRANCH  14  18
ATOM     18  O   UNL     1       6.563  12.624  44.857  0.00  0.00    +0.000 OA
ATOM     19  H   UNL     1       6.946  12.386  45.728  0.00  0.00    +0.000 HD
ENDBRANCH  14  18
BRANCH  16  20
ATOM     20  O   UNL     1       7.735  10.934  43.135  0.00  0.00    +0.000 OA
ATOM     21  H   UNL     1       8.537  10.688  43.656  0.00  0.00    +0.000 HD
ENDBRANCH  16  20
BRANCH  17  22
ATOM     22  O   UNL     1       6.922  11.915  40.515  0.00  0.00    +0.000 OA
ATOM     23  H   UNL     1       6.211  12.057  39.860  0.00  0.00    +0.000 HD
ENDBRANCH  17  22
BRANCH  15  24
ATOM     24  C   UNL     1       5.451  14.604  40.562  0.00  0.00    +0.000 C 
BRANCH  24  25
ATOM     25  O   UNL     1       6.038  15.420  39.554  0.00  0.00    +0.000 OA
ATOM     26  H   UNL     1       6.865  15.771  39.935  0.00  0.00    +0.000 HD
ENDBRANCH  24  25
ENDBRANCH  15  24
ENDBRANCH   9  12
BRANCH   7  27
ATOM     27  C   UNL     1      12.281  13.706  43.535  0.00  0.00    +0.000 A 
ATOM     28  C   UNL     1      13.483  13.910  44.238  0.00  0.00    +0.000 A 
ATOM     29  C   UNL     1      11.903  12.395  43.197  0.00  0.00    +0.000 A 
ATOM     30  C   UNL     1      14.270  12.820  44.611  0.00  0.00    +0.000 A 
ATOM     31  C   UNL     1      12.696  11.315  43.577  0.00  0.00    +0.000 A 
ATOM     32  C   UNL     1      13.874  11.522  44.289  0.00  0.00    +0.000 A 
BRANCH  32  33
ATOM     33  O   UNL     1      14.628  10.447  44.657  0.00  0.00    +0.000 OA
ATOM     34  H   UNL     1      14.130   9.861  45.254  0.00  0.00    +0.000 HD
ENDBRANCH  32  33
ENDBRANCH   7  27
BRANCH   6  35
ATOM     35  O   UNL     1       9.733  19.484  42.181  0.00  0.00    +0.000 OA
ATOM     36  H   UNL     1      10.363  19.326  41.453  0.00  0.00    +0.000 HD
ENDBRANCH   6  35
BRANCH  11  37
ATOM     37  O   UNL     1       6.462  17.258  44.652  0.00  0.00    +0.000 OA
ATOM     38  H   UNL     1       5.697  16.950  44.126  0.00  0.00    +0.000 HD
ENDBRANCH  11  37
TORSDOF 10
ENDMDL
MODEL 3
REMARK VINA RESULT:    -6.445      2.554      7.593
REMARK INTER + INTRA:         -10.454
REMARK INTER:                  -8.994
REMARK INTRA:                  -1.460
REMARK UNBOUND:                -1.560
REMARK  Name = opt27.pdb
REMARK  10 active torsions:
REMARK  status: ('A' for Active; 'I' for Inactive)
REMARK    1  A    between atoms: C_6  and  O_10
REMARK    2  A    between atoms: C_7  and  C_12
REMARK    3  A    between atoms: C_9  and  C_14
REMARK    4  A    between atoms: C_13  and  O_17
REMARK    5  A    between atoms: C_19  and  O_23
REMARK    6  A    between atoms: C_22  and  C_27
REMARK    7  A    between atoms: C_24  and  O_28
REMARK    8  A    between atoms: C_25  and  O_29
REMARK    9  A    between atoms: C_26  and  O_30
REMARK   10  A    between atoms: C_27  and  O_31
REMARK                            x       y       z     vdW  Elec       q    Type
REMARK                         _______ _______ _______ _____ _____    ______ ____
ROOT
ATOM      1  O   UNL     1      10.552  19.023  43.849  0.00  0.00    +0.000 OA
ATOM      2  C   UNL     1      11.109  17.956  43.679  0.00  0.00    +0.000 A 
ATOM      3  C   UNL     1      12.559  17.794  43.484  0.00  0.00    +0.000 A 
ATOM      4  C   UNL     1      10.371  16.681  43.547  0.00  0.00    +0.000 A 
ATOM      5  C   UNL     1      13.009  16.496  43.265  0.00  0.00    +0.000 A 
ATOM      6  C   UNL     1      13.474  18.897  43.304  0.00  0.00    +0.000 A 
ATOM      7  C   UNL     1      10.928  15.729  43.311  0.00  0.00    +0.000 A 
ATOM      8  O   UNL     1      12.025  15.509  43.182  0.00  0.00    +0.000 OA
ATOM      9  C   UNL     1      14.351  16.264  42.745  0.00  0.00    +0.000 A 
ATOM     10  C   UNL     1      14.626  18.687  42.575  0.00  0.00    +0.000 A 
ATOM     11  C   UNL     1      15.025  17.402  42.243  0.00  0.00    +0.000 A 
ENDROOT
BRANCH   9  12
ATOM     12  C   UNL     1      15.152  14.947  42.570  0.00  0.00    +0.000 C 
ATOM     13  O   UNL     1      16.464  15.118  43.174  0.00  0.00    +0.000 OA
ATOM     14  C   UNL     1      14.655  13.538  43.024  0.00  0.00    +0.000 C 
ATOM     15  C   UNL     1      16.489  15.128  44.619  0.00  0.00    +0.000 C 
ATOM     16  C   UNL     1      14.926  13.164  44.522  0.00  0.00    +0.000 C 
ATOM     17  C   UNL     1      16.316  13.646  45.020  0.00  0.00    +0.000 C 
BRANCH  14  18
ATOM     18  O   UNL     1      15.423  12.628  42.222  0.00  0.00    +0.000 OA
ATOM     19  H   UNL     1      14.831  11.876  42.006  0.00  0.00    +0.000 HD
ENDBRANCH  14  18
BRANCH  16  20
ATOM     20  O   UNL     1      14.868  11.730  44.688  0.00  0.00    +0.000 OA
ATOM     21  H   UNL     1      14.470  11.506  45.564  0.00  0.00    +0.000 HD
ENDBRANCH  16  20
BRANCH  17  22
ATOM     22  O   UNL     1      16.461  13.430  46.437  0.00  0.00    +0.000 OA
ATOM     23  H   UNL     1      16.943  12.604  46.631  0.00  0.00    +0.000 HD
ENDBRANCH  17  22
BRANCH  15  24
ATOM     24  C   UNL     1      17.822  15.787  45.027  0.00  0.00    +0.000 C 
BRANCH  24  25
ATOM     25  O   UNL     1      18.856  14.809  45.095  0.00  0.00    +0.000 OA
ATOM     26  H   UNL     1      19.616  15.246  45.523  0.00  0.00    +0.000 HD
ENDBRANCH  24  25
ENDBRANCH  15  24
ENDBRANCH   9  12
BRANCH   7  27
ATOM     27  C   UNL     1       9.958  14.624  43.001  0.00  0.00    +0.000 A 
ATOM     28  C   UNL     1       9.064  14.724  41.918  0.00  0.00    +0.000 A 
ATOM     29  C   UNL     1       9.884  13.502  43.845  0.00  0.00    +0.000 A 
ATOM     30  C   UNL     1       8.137  13.709  41.679  0.00  0.00    +0.000 A 
ATOM     31  C   UNL     1       8.956  12.495  43.594  0.00  0.00    +0.000 A 
ATOM     32  C   UNL     1       8.088  12.590  42.511  0.00  0.00    +0.000 A 
BRANCH  32  33
ATOM     33  O   UNL     1       7.194  11.586  42.282  0.00  0.00    +0.000 OA
ATOM     34  H   UNL     1       6.456  11.626  42.915  0.00  0.00    +0.000 HD
ENDBRANCH  32  33
ENDBRANCH   7  27
BRANCH   6  35
ATOM     35  O   UNL     1      13.172  20.192  43.606  0.00  0.00    +0.000 OA
ATOM     36  H   UNL     1      12.701  20.216  44.461  0.00  0.00    +0.000 HD
ENDBRANCH   6  35
BRANCH  11  37
ATOM     37  O   UNL     1      16.139  17.301  41.463  0.00  0.00    +0.000 OA
ATOM     38  H   UNL     1      16.325  16.349  41.336  0.00  0.00    +0.000 HD
ENDBRANCH  11  37
TORSDOF 10
ENDMDL
MODEL 4
REMARK VINA RESULT:    -6.040      2.434      5.357
REMARK INTER + INTRA:          -9.894
REMARK INTER:                  -8.442
REMARK INTRA:                  -1.452
REMARK UNBOUND:                -1.560
REMARK  Name = opt27.pdb
REMARK  10 active torsions:
REMARK  status: ('A' for Active; 'I' for Inactive)
REMARK    1  A    between atoms: C_6  and  O_10
REMARK    2  A    between atoms: C_7  and  C_12
REMARK    3  A    between atoms: C_9  and  C_14
REMARK    4  A    between atoms: C_13  and  O_17
REMARK    5  A    between atoms: C_19  and  O_23
REMARK    6  A    between atoms: C_22  and  C_27
REMARK    7  A    between atoms: C_24  and  O_28
REMARK    8  A    between atoms: C_25  and  O_29
REMARK    9  A    between atoms: C_26  and  O_30
REMARK   10  A    between atoms: C_27  and  O_31
REMARK                            x       y       z     vdW  Elec       q    Type
REMARK                         _______ _______ _______ _____ _____    ______ ____
ROOT
ATOM      1  O   UNL     1      13.190  18.748  40.959  0.00  0.00    +0.000 OA
ATOM      2  C   UNL     1      12.675  17.839  41.580  0.00  0.00    +0.000 A 
ATOM      3  C   UNL     1      11.223  17.658  41.742  0.00  0.00    +0.000 A 
ATOM      4  C   UNL     1      13.461  16.845  42.342  0.00  0.00    +0.000 A 
ATOM      5  C   UNL     1      10.821  16.578  42.521  0.00  0.00    +0.000 A 
ATOM      6  C   UNL     1      10.241  18.631  41.325  0.00  0.00    +0.000 A 
ATOM      7  C   UNL     1      12.934  16.067  42.967  0.00  0.00    +0.000 A 
ATOM      8  O   UNL     1      11.841  15.836  43.119  0.00  0.00    +0.000 OA
ATOM      9  C   UNL     1       9.449  16.496  43.008  0.00  0.00    +0.000 A 
ATOM     10  C   UNL     1       9.036  18.683  41.996  0.00  0.00    +0.000 A 
ATOM     11  C   UNL     1       8.674  17.672  42.871  0.00  0.00    +0.000 A 
ENDROOT
BRANCH   9  12
ATOM     12  C   UNL     1       8.703  15.348  43.736  0.00  0.00    +0.000 C 
ATOM     13  O   UNL     1       7.392  15.187  43.128  0.00  0.00    +0.000 OA
ATOM     14  C   UNL     1       9.265  13.903  43.925  0.00  0.00    +0.000 C 
ATOM     15  C   UNL     1       7.382  14.576  41.818  0.00  0.00    +0.000 C 
ATOM     16  C   UNL     1       9.026  12.912  42.733  0.00  0.00    +0.000 C 
ATOM     17  C   UNL     1       7.623  13.075  42.088  0.00  0.00    +0.000 C 
BRANCH  14  18
ATOM     18  O   UNL     1       8.528  13.391  45.045  0.00  0.00    +0.000 OA
ATOM     19  H   UNL     1       7.632  13.167  44.712  0.00  0.00    +0.000 HD
ENDBRANCH  14  18
BRANCH  16  20
ATOM     20  O   UNL     1       9.148  11.550  43.196  0.00  0.00    +0.000 OA
ATOM     21  H   UNL     1       8.993  10.922  42.449  0.00  0.00    +0.000 HD
ENDBRANCH  16  20
BRANCH  17  22
ATOM     22  O   UNL     1       7.503  12.267  40.901  0.00  0.00    +0.000 OA
ATOM     23  H   UNL     1       6.706  11.704  40.925  0.00  0.00    +0.000 HD
ENDBRANCH  17  22
BRANCH  15  24
ATOM     24  C   UNL     1       6.027  14.939  41.178  0.00  0.00    +0.000 C 
BRANCH  24  25
ATOM     25  O   UNL     1       6.055  14.675  39.779  0.00  0.00    +0.000 OA
ATOM     26  H   UNL     1       5.283  15.136  39.400  0.00  0.00    +0.000 HD
ENDBRANCH  24  25
ENDBRANCH  15  24
ENDBRANCH   9  12
BRANCH   7  27
ATOM     27  C   UNL     1      13.924  15.327  43.819  0.00  0.00    +0.000 A 
ATOM     28  C   UNL     1      13.597  14.091  44.407  0.00  0.00    +0.000 A 
ATOM     29  C   UNL     1      15.173  15.906  44.103  0.00  0.00    +0.000 A 
ATOM     30  C   UNL     1      14.513  13.445  45.238  0.00  0.00    +0.000 A 
ATOM     31  C   UNL     1      16.080  15.251  44.931  0.00  0.00    +0.000 A 
ATOM     32  C   UNL     1      15.758  14.020  45.494  0.00  0.00    +0.000 A 
BRANCH  32  33
ATOM     33  O   UNL     1      16.667  13.394  46.295  0.00  0.00    +0.000 OA
ATOM     34  H   UNL     1      16.838  12.487  45.985  0.00  0.00    +0.000 HD
ENDBRANCH  32  33
ENDBRANCH   7  27
BRANCH   6  35
ATOM     35  O   UNL     1      10.503  19.656  40.464  0.00  0.00    +0.000 OA
ATOM     36  H   UNL     1      11.417  19.566  40.134  0.00  0.00    +0.000 HD
ENDBRANCH   6  35
BRANCH  11  37
ATOM     37  O   UNL     1       7.498  17.847  43.539  0.00  0.00    +0.000 OA
ATOM     38  H   UNL     1       6.977  17.025  43.442  0.00  0.00    +0.000 HD
ENDBRANCH  11  37
TORSDOF 10
ENDMDL
MODEL 5
REMARK VINA RESULT:    -6.032      2.976      6.725
REMARK INTER + INTRA:          -9.884
REMARK INTER:                  -8.314
REMARK INTRA:                  -1.571
REMARK UNBOUND:                -1.560
REMARK  Name = opt27.pdb
REMARK  10 active torsions:
REMARK  status: ('A' for Active; 'I' for Inactive)
REMARK    1  A    between atoms: C_6  and  O_10
REMARK    2  A    between atoms: C_7  and  C_12
REMARK    3  A    between atoms: C_9  and  C_14
REMARK    4  A    between atoms: C_13  and  O_17
REMARK    5  A    between atoms: C_19  and  O_23
REMARK    6  A    between atoms: C_22  and  C_27
REMARK    7  A    between atoms: C_24  and  O_28
REMARK    8  A    between atoms: C_25  and  O_29
REMARK    9  A    between atoms: C_26  and  O_30
REMARK   10  A    between atoms: C_27  and  O_31
REMARK                            x       y       z     vdW  Elec       q    Type
REMARK                         _______ _______ _______ _____ _____    ______ ____
ROOT
ATOM      1  O   UNL     1      12.315  11.394  43.641  0.00  0.00    +0.000 OA
ATOM      2  C   UNL     1      12.496  12.596  43.673  0.00  0.00    +0.000 A 
ATOM      3  C   UNL     1      13.792  13.235  43.956  0.00  0.00    +0.000 A 
ATOM      4  C   UNL     1      11.398  13.575  43.526  0.00  0.00    +0.000 A 
ATOM      5  C   UNL     1      13.797  14.625  43.988  0.00  0.00    +0.000 A 
ATOM      6  C   UNL     1      14.964  12.515  44.395  0.00  0.00    +0.000 A 
ATOM      7  C   UNL     1      11.606  14.677  43.641  0.00  0.00    +0.000 A 
ATOM      8  O   UNL     1      12.560  15.250  43.821  0.00  0.00    +0.000 OA
ATOM      9  C   UNL     1      14.927  15.341  44.569  0.00  0.00    +0.000 A 
ATOM     10  C   UNL     1      15.895  13.178  45.169  0.00  0.00    +0.000 A 
ATOM     11  C   UNL     1      15.840  14.555  45.310  0.00  0.00    +0.000 A 
ENDROOT
BRANCH   9  12
ATOM     12  C   UNL     1      15.264  16.855  44.583  0.00  0.00    +0.000 C 
ATOM     13  O   UNL     1      16.475  17.068  43.807  0.00  0.00    +0.000 OA
ATOM     14  C   UNL     1      14.279  17.988  44.154  0.00  0.00    +0.000 C 
ATOM     15  C   UNL     1      16.326  16.953  42.373  0.00  0.00    +0.000 C 
ATOM     16  C   UNL     1      14.227  18.310  42.621  0.00  0.00    +0.000 C 
ATOM     17  C   UNL     1      15.626  18.263  41.949  0.00  0.00    +0.000 C 
BRANCH  14  18
ATOM     18  O   UNL     1      14.795  19.157  44.808  0.00  0.00    +0.000 OA
ATOM     19  H   UNL     1      14.442  19.147  45.723  0.00  0.00    +0.000 HD
ENDBRANCH  14  18
BRANCH  16  20
ATOM     20  O   UNL     1      13.679  19.630  42.415  0.00  0.00    +0.000 OA
ATOM     21  H   UNL     1      13.998  20.000  41.556  0.00  0.00    +0.000 HD
ENDBRANCH  16  20
BRANCH  17  22
ATOM     22  O   UNL     1      15.519  18.401  40.519  0.00  0.00    +0.000 OA
ATOM     23  H   UNL     1      16.389  18.333  40.082  0.00  0.00    +0.000 HD
ENDBRANCH  17  22
BRANCH  15  24
ATOM     24  C   UNL     1      17.742  16.728  41.805  0.00  0.00    +0.000 C 
BRANCH  24  25
ATOM     25  O   UNL     1      17.668  16.327  40.441  0.00  0.00    +0.000 OA
ATOM     26  H   UNL     1      18.312  16.880  39.960  0.00  0.00    +0.000 HD
ENDBRANCH  24  25
ENDBRANCH  15  24
ENDBRANCH   9  12
BRANCH   7  27
ATOM     27  C   UNL     1      10.317  15.448  43.679  0.00  0.00    +0.000 A 
ATOM     28  C   UNL     1      10.309  16.854  43.636  0.00  0.00    +0.000 A 
ATOM     29  C   UNL     1       9.099  14.764  43.838  0.00  0.00    +0.000 A 
ATOM     30  C   UNL     1       9.104  17.551  43.725  0.00  0.00    +0.000 A 
ATOM     31  C   UNL     1       7.903  15.471  43.923  0.00  0.00    +0.000 A 
ATOM     32  C   UNL     1       7.900  16.861  43.860  0.00  0.00    +0.000 A 
BRANCH  32  33
ATOM     33  O   UNL     1       6.713  17.529  43.937  0.00  0.00    +0.000 OA
ATOM     34  H   UNL     1       6.669  18.067  44.748  0.00  0.00    +0.000 HD
ENDBRANCH  32  33
ENDBRANCH   7  27
BRANCH   6  35
ATOM     35  O   UNL     1      15.110  11.163  44.292  0.00  0.00    +0.000 OA
ATOM     36  H   UNL     1      16.054  10.937  44.394  0.00  0.00    +0.000 HD
ENDBRANCH   6  35
BRANCH  11  37
ATOM     37  O   UNL     1      16.760  15.110  46.150  0.00  0.00    +0.000 OA
ATOM     38  H   UNL     1      17.478  14.458  46.275  0.00  0.00    +0.000 HD
ENDBRANCH  11  37
TORSDOF 10
ENDMDL
MODEL 6
REMARK VINA RESULT:    -5.869      3.070      6.645
REMARK INTER + INTRA:          -9.658
REMARK INTER:                  -8.111
REMARK INTRA:                  -1.548
REMARK UNBOUND:                -1.560
REMARK  Name = opt27.pdb
REMARK  10 active torsions:
REMARK  status: ('A' for Active; 'I' for Inactive)
REMARK    1  A    between atoms: C_6  and  O_10
REMARK    2  A    between atoms: C_7  and  C_12
REMARK    3  A    between atoms: C_9  and  C_14
REMARK    4  A    between atoms: C_13  and  O_17
REMARK    5  A    between atoms: C_19  and  O_23
REMARK    6  A    between atoms: C_22  and  C_27
REMARK    7  A    between atoms: C_24  and  O_28
REMARK    8  A    between atoms: C_25  and  O_29
REMARK    9  A    between atoms: C_26  and  O_30
REMARK   10  A    between atoms: C_27  and  O_31
REMARK                            x       y       z     vdW  Elec       q    Type
REMARK                         _______ _______ _______ _____ _____    ______ ____
ROOT
ATOM      1  O   UNL     1      10.409  12.886  43.122  0.00  0.00    +0.000 OA
ATOM      2  C   UNL     1      11.191  13.807  43.256  0.00  0.00    +0.000 A 
ATOM      3  C   UNL     1      12.610  13.649  43.614  0.00  0.00    +0.000 A 
ATOM      4  C   UNL     1      10.779  15.225  43.170  0.00  0.00    +0.000 A 
ATOM      5  C   UNL     1      13.341  14.823  43.760  0.00  0.00    +0.000 A 
ATOM      6  C   UNL     1      13.204  12.395  44.013  0.00  0.00    +0.000 A 
ATOM      7  C   UNL     1      11.527  16.043  43.380  0.00  0.00    +0.000 A 
ATOM      8  O   UNL     1      12.627  16.015  43.624  0.00  0.00    +0.000 OA
ATOM      9  C   UNL     1      14.642  14.799  44.419  0.00  0.00    +0.000 A 
ATOM     10  C   UNL     1      14.296  12.419  44.856  0.00  0.00    +0.000 A 
ATOM     11  C   UNL     1      14.963  13.607  45.108  0.00  0.00    +0.000 A 
ENDROOT
BRANCH   9  12
ATOM     12  C   UNL     1      15.720  15.905  44.563  0.00  0.00    +0.000 C 
ATOM     13  O   UNL     1      16.952  15.434  43.951  0.00  0.00    +0.000 OA
ATOM     14  C   UNL     1      15.547  17.383  44.090  0.00  0.00    +0.000 C 
ATOM     15  C   UNL     1      16.956  15.398  42.505  0.00  0.00    +0.000 C 
ATOM     16  C   UNL     1      15.876  17.664  42.583  0.00  0.00    +0.000 C 
ATOM     17  C   UNL     1      17.115  16.874  42.081  0.00  0.00    +0.000 C 
BRANCH  14  18
ATOM     18  O   UNL     1      16.510  18.108  44.869  0.00  0.00    +0.000 OA
ATOM     19  H   UNL     1      16.194  18.086  45.798  0.00  0.00    +0.000 HD
ENDBRANCH  14  18
BRANCH  16  20
ATOM     20  O   UNL     1      16.139  19.072  42.393  0.00  0.00    +0.000 OA
ATOM     21  H   UNL     1      15.290  19.566  42.303  0.00  0.00    +0.000 HD
ENDBRANCH  16  20
BRANCH  17  22
ATOM     22  O   UNL     1      17.287  17.031  40.659  0.00  0.00    +0.000 OA
ATOM     23  H   UNL     1      17.820  17.820  40.443  0.00  0.00    +0.000 HD
ENDBRANCH  17  22
BRANCH  15  24
ATOM     24  C   UNL     1      18.102  14.450  42.097  0.00  0.00    +0.000 C 
BRANCH  24  25
ATOM     25  O   UNL     1      17.893  13.964  40.775  0.00  0.00    +0.000 OA
ATOM     26  H   UNL     1      18.780  13.833  40.390  0.00  0.00    +0.000 HD
ENDBRANCH  24  25
ENDBRANCH  15  24
ENDBRANCH   9  12
BRANCH   7  27
ATOM     27  C   UNL     1      10.833  17.373  43.459  0.00  0.00    +0.000 A 
ATOM     28  C   UNL     1       9.433  17.470  43.355  0.00  0.00    +0.000 A 
ATOM     29  C   UNL     1      11.592  18.552  43.561  0.00  0.00    +0.000 A 
ATOM     30  C   UNL     1       8.813  18.720  43.379  0.00  0.00    +0.000 A 
ATOM     31  C   UNL     1      10.961  19.793  43.586  0.00  0.00    +0.000 A 
ATOM     32  C   UNL     1       9.575  19.881  43.503  0.00  0.00    +0.000 A 
BRANCH  32  33
ATOM     33  O   UNL     1       8.982  21.109  43.538  0.00  0.00    +0.000 OA
ATOM     34  H   UNL     1       8.075  21.046  43.887  0.00  0.00    +0.000 HD
ENDBRANCH  32  33
ENDBRANCH   7  27
BRANCH   6  35
ATOM     35  O   UNL     1      12.625  11.178  43.802  0.00  0.00    +0.000 OA
ATOM     36  H   UNL     1      11.988  11.254  43.067  0.00  0.00    +0.000 HD
ENDBRANCH   6  35
BRANCH  11  37
ATOM     37  O   UNL     1      15.986  13.542  46.008  0.00  0.00    +0.000 OA
ATOM     38  H   UNL     1      16.797  13.300  45.517  0.00  0.00    +0.000 HD
ENDBRANCH  11  37
TORSDOF 10
ENDMDL
MODEL 7
REMARK VINA RESULT:    -5.716      2.459      6.021
REMARK INTER + INTRA:          -9.447
REMARK INTER:                  -7.993
REMARK INTRA:                  -1.454
REMARK UNBOUND:                -1.560
REMARK  Name = opt27.pdb
REMARK  10 active torsions:
REMARK  status: ('A' for Active; 'I' for Inactive)
REMARK    1  A    between atoms: C_6  and  O_10
REMARK    2  A    between atoms: C_7  and  C_12
REMARK    3  A    between atoms: C_9  and  C_14
REMARK    4  A    between atoms: C_13  and  O_17
REMARK    5  A    between atoms: C_19  and  O_23
REMARK    6  A    between atoms: C_22  and  C_27
REMARK    7  A    between atoms: C_24  and  O_28
REMARK    8  A    between atoms: C_25  and  O_29
REMARK    9  A    between atoms: C_26  and  O_30
REMARK   10  A    between atoms: C_27  and  O_31
REMARK                            x       y       z     vdW  Elec       q    Type
REMARK                         _______ _______ _______ _____ _____    ______ ____
ROOT
ATOM      1  O   UNL     1       8.646  12.510  41.542  0.00  0.00    +0.000 OA
ATOM      2  C   UNL     1       9.246  13.417  42.086  0.00  0.00    +0.000 A 
ATOM      3  C   UNL     1      10.654  13.346  42.513  0.00  0.00    +0.000 A 
ATOM      4  C   UNL     1       8.595  14.684  42.480  0.00  0.00    +0.000 A 
ATOM      5  C   UNL     1      11.158  14.471  43.155  0.00  0.00    +0.000 A 
ATOM      6  C   UNL     1      11.441  12.136  42.488  0.00  0.00    +0.000 A 
ATOM      7  C   UNL     1       9.176  15.463  43.054  0.00  0.00    +0.000 A 
ATOM      8  O   UNL     1      10.251  15.507  43.387  0.00  0.00    +0.000 OA
ATOM      9  C   UNL     1      12.412  14.392  43.896  0.00  0.00    +0.000 A 
ATOM     10  C   UNL     1      12.472  12.000  43.394  0.00  0.00    +0.000 A 
ATOM     11  C   UNL     1      12.907  13.088  44.133  0.00  0.00    +0.000 A 
ENDROOT
BRANCH   9  12
ATOM     12  C   UNL     1      13.270  15.506  44.549  0.00  0.00    +0.000 C 
ATOM     13  O   UNL     1      14.668  15.261  44.232  0.00  0.00    +0.000 OA
ATOM     14  C   UNL     1      13.048  17.038  44.339  0.00  0.00    +0.000 C 
ATOM     15  C   UNL     1      15.057  15.542  42.867  0.00  0.00    +0.000 C 
ATOM     16  C   UNL     1      13.725  17.662  43.071  0.00  0.00    +0.000 C 
ATOM     17  C   UNL     1      15.140  17.083  42.797  0.00  0.00    +0.000 C 
BRANCH  14  18
ATOM     18  O   UNL     1      13.676  17.636  45.483  0.00  0.00    +0.000 OA
ATOM     19  H   UNL     1      13.079  18.352  45.789  0.00  0.00    +0.000 HD
ENDBRANCH  14  18
BRANCH  16  20
ATOM     20  O   UNL     1      13.854  19.091  43.237  0.00  0.00    +0.000 OA
ATOM     21  H   UNL     1      13.905  19.318  44.197  0.00  0.00    +0.000 HD
ENDBRANCH  16  20
BRANCH  17  22
ATOM     22  O   UNL     1      15.659  17.557  41.540  0.00  0.00    +0.000 OA
ATOM     23  H   UNL     1      15.025  17.419  40.810  0.00  0.00    +0.000 HD
ENDBRANCH  17  22
BRANCH  15  24
ATOM     24  C   UNL     1      16.376  14.782  42.626  0.00  0.00    +0.000 C 
BRANCH  24  25
ATOM     25  O   UNL     1      16.337  13.510  43.263  0.00  0.00    +0.000 OA
ATOM     26  H   UNL     1      17.041  12.976  42.849  0.00  0.00    +0.000 HD
ENDBRANCH  24  25
ENDBRANCH  15  24
ENDBRANCH   9  12
BRANCH   7  27
ATOM     27  C   UNL     1       8.255  16.547  43.537  0.00  0.00    +0.000 A 
ATOM     28  C   UNL     1       8.401  17.875  43.096  0.00  0.00    +0.000 A 
ATOM     29  C   UNL     1       7.277  16.253  44.503  0.00  0.00    +0.000 A 
ATOM     30  C   UNL     1       7.568  18.876  43.598  0.00  0.00    +0.000 A 
ATOM     31  C   UNL     1       6.450  17.260  44.994  0.00  0.00    +0.000 A 
ATOM     32  C   UNL     1       6.587  18.568  44.540  0.00  0.00    +0.000 A 
BRANCH  32  33
ATOM     33  O   UNL     1       5.758  19.534  45.030  0.00  0.00    +0.000 OA
ATOM     34  H   UNL     1       5.237  19.197  45.780  0.00  0.00    +0.000 HD
ENDBRANCH  32  33
ENDBRANCH   7  27
BRANCH   6  35
ATOM     35  O   UNL     1      11.096  11.018  41.787  0.00  0.00    +0.000 OA
ATOM     36  H   UNL     1      11.458  11.087  40.883  0.00  0.00    +0.000 HD
ENDBRANCH   6  35
BRANCH  11  37
ATOM     37  O   UNL     1      13.885  12.840  45.052  0.00  0.00    +0.000 OA
ATOM     38  H   UNL     1      14.149  11.903  44.956  0.00  0.00    +0.000 HD
ENDBRANCH  11  37
TORSDOF 10
ENDMDL
MODEL 8
REMARK VINA RESULT:    -5.694      2.279      5.562
REMARK INTER + INTRA:          -9.418
REMARK INTER:                  -7.909
REMARK INTRA:                  -1.509
REMARK UNBOUND:                -1.560
REMARK  Name = opt27.pdb
REMARK  10 active torsions:
REMARK  status: ('A' for Active; 'I' for Inactive)
REMARK    1  A    between atoms: C_6  and  O_10
REMARK    2  A    between atoms: C_7  and  C_12
REMARK    3  A    between atoms: C_9  and  C_14
REMARK    4  A    between atoms: C_13  and  O_17
REMARK    5  A    between atoms: C_19  and  O_23
REMARK    6  A    between atoms: C_22  and  C_27
REMARK    7  A    between atoms: C_24  and  O_28
REMARK    8  A    between atoms: C_25  and  O_29
REMARK    9  A    between atoms: C_26  and  O_30
REMARK   10  A    between atoms: C_27  and  O_31
REMARK                            x       y       z     vdW  Elec       q    Type
REMARK                         _______ _______ _______ _____ _____    ______ ____
ROOT
ATOM      1  O   UNL     1       9.948  19.367  42.461  0.00  0.00    +0.000 OA
ATOM      2  C   UNL     1      10.755  18.558  42.877  0.00  0.00    +0.000 A 
ATOM      3  C   UNL     1      10.492  17.115  43.015  0.00  0.00    +0.000 A 
ATOM      4  C   UNL     1      12.084  18.947  43.396  0.00  0.00    +0.000 A 
ATOM      5  C   UNL     1      11.524  16.351  43.547  0.00  0.00    +0.000 A 
ATOM      6  C   UNL     1       9.192  16.515  42.831  0.00  0.00    +0.000 A 
ATOM      7  C   UNL     1      12.765  18.167  43.844  0.00  0.00    +0.000 A 
ATOM      8  O   UNL     1      12.661  17.050  43.957  0.00  0.00    +0.000 OA
ATOM      9  C   UNL     1      11.264  14.997  44.022  0.00  0.00    +0.000 A 
ATOM     10  C   UNL     1       8.899  15.352  43.513  0.00  0.00    +0.000 A 
ATOM     11  C   UNL     1       9.901  14.641  44.153  0.00  0.00    +0.000 A 
ENDROOT
BRANCH   9  12
ATOM     12  C   UNL     1      12.240  13.888  44.495  0.00  0.00    +0.000 C 
ATOM     13  O   UNL     1      11.906  12.652  43.805  0.00  0.00    +0.000 OA
ATOM     14  C   UNL     1      13.797  13.995  44.447  0.00  0.00    +0.000 C 
ATOM     15  C   UNL     1      12.272  12.600  42.407  0.00  0.00    +0.000 C 
ATOM     16  C   UNL     1      14.471  13.605  43.087  0.00  0.00    +0.000 C 
ATOM     17  C   UNL     1      13.800  12.377  42.414  0.00  0.00    +0.000 C 
BRANCH  14  18
ATOM     18  O   UNL     1      14.237  13.036  45.420  0.00  0.00    +0.000 OA
ATOM     19  H   UNL     1      13.512  12.380  45.515  0.00  0.00    +0.000 HD
ENDBRANCH  14  18
BRANCH  16  20
ATOM     20  O   UNL     1      15.863  13.289  43.302  0.00  0.00    +0.000 OA
ATOM     21  H   UNL     1      15.973  12.317  43.440  0.00  0.00    +0.000 HD
ENDBRANCH  16  20
BRANCH  17  22
ATOM     22  O   UNL     1      14.338  12.151  41.097  0.00  0.00    +0.000 OA
ATOM     23  H   UNL     1      14.429  12.983  40.594  0.00  0.00    +0.000 HD
ENDBRANCH  17  22
BRANCH  15  24
ATOM     24  C   UNL     1      11.427  11.474  41.778  0.00  0.00    +0.000 C 
BRANCH  24  25
ATOM     25  O   UNL     1      11.505  11.533  40.358  0.00  0.00    +0.000 OA
ATOM     26  H   UNL     1      10.731  11.043  40.022  0.00  0.00    +0.000 HD
ENDBRANCH  24  25
ENDBRANCH  15  24
ENDBRANCH   9  12
BRANCH   7  27
ATOM     27  C   UNL     1      13.943  18.824  44.503  0.00  0.00    +0.000 A 
ATOM     28  C   UNL     1      14.138  20.215  44.426  0.00  0.00    +0.000 A 
ATOM     29  C   UNL     1      14.914  18.035  45.146  0.00  0.00    +0.000 A 
ATOM     30  C   UNL     1      15.268  20.798  45.002  0.00  0.00    +0.000 A 
ATOM     31  C   UNL     1      16.036  18.629  45.718  0.00  0.00    +0.000 A 
ATOM     32  C   UNL     1      16.212  20.008  45.655  0.00  0.00    +0.000 A 
BRANCH  32  33
ATOM     33  O   UNL     1      17.315  20.565  46.232  0.00  0.00    +0.000 OA
ATOM     34  H   UNL     1      17.319  21.532  46.112  0.00  0.00    +0.000 HD
ENDBRANCH  32  33
ENDBRANCH   7  27
BRANCH   6  35
ATOM     35  O   UNL     1       8.148  17.135  42.209  0.00  0.00    +0.000 OA
ATOM     36  H   UNL     1       8.279  17.083  41.244  0.00  0.00    +0.000 HD
ENDBRANCH   6  35
BRANCH  11  37
ATOM     37  O   UNL     1       9.503  13.543  44.859  0.00  0.00    +0.000 OA
ATOM     38  H   UNL     1       8.554  13.654  45.068  0.00  0.00    +0.000 HD
ENDBRANCH  11  37
TORSDOF 10
ENDMDL
MODEL 9
REMARK VINA RESULT:    -5.505      2.928      7.017
REMARK INTER + INTRA:          -9.156
REMARK INTER:                  -7.677
REMARK INTRA:                  -1.480
REMARK UNBOUND:                -1.560
REMARK  Name = opt27.pdb
REMARK  10 active torsions:
REMARK  status: ('A' for Active; 'I' for Inactive)
REMARK    1  A    between atoms: C_6  and  O_10
REMARK    2  A    between atoms: C_7  and  C_12
REMARK    3  A    between atoms: C_9  and  C_14
REMARK    4  A    between atoms: C_13  and  O_17
REMARK    5  A    between atoms: C_19  and  O_23
REMARK    6  A    between atoms: C_22  and  C_27
REMARK    7  A    between atoms: C_24  and  O_28
REMARK    8  A    between atoms: C_25  and  O_29
REMARK    9  A    between atoms: C_26  and  O_30
REMARK   10  A    between atoms: C_27  and  O_31
REMARK                            x       y       z     vdW  Elec       q    Type
REMARK                         _______ _______ _______ _____ _____    ______ ____
ROOT
ATOM      1  O   UNL     1      15.491  12.298  44.584  0.00  0.00    +0.000 OA
ATOM      2  C   UNL     1      14.788  13.250  44.306  0.00  0.00    +0.000 A 
ATOM      3  C   UNL     1      15.195  14.658  44.455  0.00  0.00    +0.000 A 
ATOM      4  C   UNL     1      13.382  13.107  43.872  0.00  0.00    +0.000 A 
ATOM      5  C   UNL     1      14.240  15.612  44.122  0.00  0.00    +0.000 A 
ATOM      6  C   UNL     1      16.414  15.077  45.105  0.00  0.00    +0.000 A 
ATOM      7  C   UNL     1      12.748  14.025  43.702  0.00  0.00    +0.000 A 
ATOM      8  O   UNL     1      12.983  15.125  43.757  0.00  0.00    +0.000 OA
ATOM      9  C   UNL     1      14.418  17.000  44.532  0.00  0.00    +0.000 A 
ATOM     10  C   UNL     1      16.448  16.316  45.709  0.00  0.00    +0.000 A 
ATOM     11  C   UNL     1      15.438  17.237  45.483  0.00  0.00    +0.000 A 
ENDROOT
BRANCH   9  12
ATOM     12  C   UNL     1      13.613  18.273  44.161  0.00  0.00    +0.000 C 
ATOM     13  O   UNL     1      14.431  19.102  43.290  0.00  0.00    +0.000 OA
ATOM     14  C   UNL     1      12.186  18.269  43.526  0.00  0.00    +0.000 C 
ATOM     15  C   UNL     1      14.593  18.617  41.938  0.00  0.00    +0.000 C 
ATOM     16  C   UNL     1      12.129  18.129  41.966  0.00  0.00    +0.000 C 
ATOM     17  C   UNL     1      13.247  18.934  41.249  0.00  0.00    +0.000 C 
BRANCH  14  18
ATOM     18  O   UNL     1      11.663  19.566  43.848  0.00  0.00    +0.000 OA
ATOM     19  H   UNL     1      12.236  20.220  43.391  0.00  0.00    +0.000 HD
ENDBRANCH  14  18
BRANCH  16  20
ATOM     20  O   UNL     1      10.856  18.606  41.477  0.00  0.00    +0.000 OA
ATOM     21  H   UNL     1      10.995  19.323  40.812  0.00  0.00    +0.000 HD
ENDBRANCH  16  20
BRANCH  17  22
ATOM     22  O   UNL     1      13.263  18.652  39.836  0.00  0.00    +0.000 OA
ATOM     23  H   UNL     1      12.384  18.778  39.431  0.00  0.00    +0.000 HD
ENDBRANCH  17  22
BRANCH  15  24
ATOM     24  C   UNL     1      15.831  19.333  41.364  0.00  0.00    +0.000 C 
BRANCH  24  25
ATOM     25  O   UNL     1      16.339  18.618  40.241  0.00  0.00    +0.000 OA
ATOM     26  H   UNL     1      15.569  18.194  39.818  0.00  0.00    +0.000 HD
ENDBRANCH  24  25
ENDBRANCH  15  24
ENDBRANCH   9  12
BRANCH   7  27
ATOM     27  C   UNL     1      11.312  13.633  43.495  0.00  0.00    +0.000 A 
ATOM     28  C   UNL     1      10.345  13.863  44.491  0.00  0.00    +0.000 A 
ATOM     29  C   UNL     1      10.935  12.956  42.322  0.00  0.00    +0.000 A 
ATOM     30  C   UNL     1       9.028  13.444  44.299  0.00  0.00    +0.000 A 
ATOM     31  C   UNL     1       9.617  12.546  42.141  0.00  0.00    +0.000 A 
ATOM     32  C   UNL     1       8.661  12.793  43.122  0.00  0.00    +0.000 A 
BRANCH  32  33
ATOM     33  O   UNL     1       7.375  12.389  42.916  0.00  0.00    +0.000 OA
ATOM     34  H   UNL     1       7.349  11.499  42.522  0.00  0.00    +0.000 HD
ENDBRANCH  32  33
ENDBRANCH   7  27
BRANCH   6  35
ATOM     35  O   UNL     1      17.463  14.244  45.364  0.00  0.00    +0.000 OA
ATOM     36  H   UNL     1      17.833  14.464  46.240  0.00  0.00    +0.000 HD
ENDBRANCH   6  35
BRANCH  11  37
ATOM     37  O   UNL     1      15.524  18.407  46.178  0.00  0.00    +0.000 OA
ATOM     38  H   UNL     1      16.472  18.590  46.334  0.00  0.00    +0.000 HD
ENDBRANCH  11  37
TORSDOF 10
ENDMDL
MODEL 10
REMARK VINA RESULT:    -5.475      2.878      4.730
REMARK INTER + INTRA:          -9.116
REMARK INTER:                  -7.590
REMARK INTRA:                  -1.526
REMARK UNBOUND:                -1.560
REMARK  Name = opt27.pdb
REMARK  10 active torsions:
REMARK  status: ('A' for Active; 'I' for Inactive)
REMARK    1  A    between atoms: C_6  and  O_10
REMARK    2  A    between atoms: C_7  and  C_12
REMARK    3  A    between atoms: C_9  and  C_14
REMARK    4  A    between atoms: C_13  and  O_17
REMARK    5  A    between atoms: C_19  and  O_23
REMARK    6  A    between atoms: C_22  and  C_27
REMARK    7  A    between atoms: C_24  and  O_28
REMARK    8  A    between atoms: C_25  and  O_29
REMARK    9  A    between atoms: C_26  and  O_30
REMARK   10  A    between atoms: C_27  and  O_31
REMARK                            x       y       z     vdW  Elec       q    Type
REMARK                         _______ _______ _______ _____ _____    ______ ____
ROOT
ATOM      1  O   UNL     1      12.162  17.452  38.327  0.00  0.00    +0.000 OA
ATOM      2  C   UNL     1      11.597  17.142  39.358  0.00  0.00    +0.000 A 
ATOM      3  C   UNL     1      10.197  16.693  39.437  0.00  0.00    +0.000 A 
ATOM      4  C   UNL     1      12.229  17.274  40.688  0.00  0.00    +0.000 A 
ATOM      5  C   UNL     1       9.711  16.417  40.710  0.00  0.00    +0.000 A 
ATOM      6  C   UNL     1       9.277  16.728  38.324  0.00  0.00    +0.000 A 
ATOM      7  C   UNL     1      11.635  17.047  41.619  0.00  0.00    +0.000 A 
ATOM      8  O   UNL     1      10.584  16.669  41.771  0.00  0.00    +0.000 OA
ATOM      9  C   UNL     1       8.276  16.285  40.934  0.00  0.00    +0.000 A 
ATOM     10  C   UNL     1       7.929  16.862  38.585  0.00  0.00    +0.000 A 
ATOM     11  C   UNL     1       7.444  16.710  39.873  0.00  0.00    +0.000 A 
ENDROOT
BRANCH   9  12
ATOM     12  C   UNL     1       7.489  15.824  42.189  0.00  0.00    +0.000 C 
ATOM     13  O   UNL     1       6.557  14.780  41.795  0.00  0.00    +0.000 OA
ATOM     14  C   UNL     1       8.145  15.329  43.518  0.00  0.00    +0.000 C 
ATOM     15  C   UNL     1       7.149  13.494  41.498  0.00  0.00    +0.000 C 
ATOM     16  C   UNL     1       8.540  13.813  43.565  0.00  0.00    +0.000 C 
ATOM     17  C   UNL     1       7.490  12.896  42.881  0.00  0.00    +0.000 C 
BRANCH  14  18
ATOM     18  O   UNL     1       7.117  15.523  44.501  0.00  0.00    +0.000 OA
ATOM     19  H   UNL     1       7.402  15.038  45.304  0.00  0.00    +0.000 HD
ENDBRANCH  14  18
BRANCH  16  20
ATOM     20  O   UNL     1       8.676  13.385  44.938  0.00  0.00    +0.000 OA
ATOM     21  H   UNL     1       8.926  14.150  45.509  0.00  0.00    +0.000 HD
ENDBRANCH  16  20
BRANCH  17  22
ATOM     22  O   UNL     1       7.963  11.538  42.801  0.00  0.00    +0.000 OA
ATOM     23  H   UNL     1       7.460  11.016  42.146  0.00  0.00    +0.000 HD
ENDBRANCH  17  22
BRANCH  15  24
ATOM     24  C   UNL     1       6.110  12.719  40.664  0.00  0.00    +0.000 C 
BRANCH  24  25
ATOM     25  O   UNL     1       6.664  11.490  40.204  0.00  0.00    +0.000 OA
ATOM     26  H   UNL     1       6.134  10.782  40.616  0.00  0.00    +0.000 HD
ENDBRANCH  24  25
ENDBRANCH  15  24
ENDBRANCH   9  12
BRANCH   7  27
ATOM     27  C   UNL     1      12.402  17.469  42.840  0.00  0.00    +0.000 A 
ATOM     28  C   UNL     1      13.603  18.194  42.730  0.00  0.00    +0.000 A 
ATOM     29  C   UNL     1      11.960  17.071  44.115  0.00  0.00    +0.000 A 
ATOM     30  C   UNL     1      14.326  18.531  43.875  0.00  0.00    +0.000 A 
ATOM     31  C   UNL     1      12.690  17.416  45.249  0.00  0.00    +0.000 A 
ATOM     32  C   UNL     1      13.867  18.150  45.135  0.00  0.00    +0.000 A 
BRANCH  32  33
ATOM     33  O   UNL     1      14.558  18.482  46.263  0.00  0.00    +0.000 OA
ATOM     34  H   UNL     1      14.790  19.427  46.263  0.00  0.00    +0.000 HD
ENDBRANCH  32  33
ENDBRANCH   7  27
BRANCH   6  35
ATOM     35  O   UNL     1       9.663  16.869  37.023  0.00  0.00    +0.000 OA
ATOM     36  H   UNL     1      10.611  17.098  36.997  0.00  0.00    +0.000 HD
ENDBRANCH   6  35
BRANCH  11  37
ATOM     37  O   UNL     1       6.108  16.930  40.043  0.00  0.00    +0.000 OA
ATOM     38  H   UNL     1       5.833  16.464  40.857  0.00  0.00    +0.000 HD
ENDBRANCH  11  37
TORSDOF 10
ENDMDL
MODEL 11
REMARK VINA RESULT:    -5.410      2.988      6.909
REMARK INTER + INTRA:          -9.026
REMARK INTER:                  -7.452
REMARK INTRA:                  -1.574
REMARK UNBOUND:                -1.560
REMARK  Name = opt27.pdb
REMARK  10 active torsions:
REMARK  status: ('A' for Active; 'I' for Inactive)
REMARK    1  A    between atoms: C_6  and  O_10
REMARK    2  A    between atoms: C_7  and  C_12
REMARK    3  A    between atoms: C_9  and  C_14
REMARK    4  A    between atoms: C_13  and  O_17
REMARK    5  A    between atoms: C_19  and  O_23
REMARK    6  A    between atoms: C_22  and  C_27
REMARK    7  A    between atoms: C_24  and  O_28
REMARK    8  A    between atoms: C_25  and  O_29
REMARK    9  A    between atoms: C_26  and  O_30
REMARK   10  A    between atoms: C_27  and  O_31
REMARK                            x       y       z     vdW  Elec       q    Type
REMARK                         _______ _______ _______ _____ _____    ______ ____
ROOT
ATOM      1  O   UNL     1      13.817  12.119  44.866  0.00  0.00    +0.000 OA
ATOM      2  C   UNL     1      13.442  13.236  44.565  0.00  0.00    +0.000 A 
ATOM      3  C   UNL     1      14.306  14.429  44.551  0.00  0.00    +0.000 A 
ATOM      4  C   UNL     1      12.029  13.553  44.267  0.00  0.00    +0.000 A 
ATOM      5  C   UNL     1      13.689  15.630  44.216  0.00  0.00    +0.000 A 
ATOM      6  C   UNL     1      15.659  14.447  45.054  0.00  0.00    +0.000 A 
ATOM      7  C   UNL     1      11.719  14.619  44.070  0.00  0.00    +0.000 A 
ATOM      8  O   UNL     1      12.310  15.577  44.006  0.00  0.00    +0.000 OA
ATOM      9  C   UNL     1      14.360  16.897  44.484  0.00  0.00    +0.000 A 
ATOM     10  C   UNL     1      16.167  15.635  45.540  0.00  0.00    +0.000 A 
ATOM     11  C   UNL     1      15.500  16.828  45.318  0.00  0.00    +0.000 A 
ENDROOT
BRANCH   9  12
ATOM     12  C   UNL     1      13.985  18.344  44.069  0.00  0.00    +0.000 C 
ATOM     13  O   UNL     1      15.084  18.906  43.301  0.00  0.00    +0.000 OA
ATOM     14  C   UNL     1      12.683  18.740  43.303  0.00  0.00    +0.000 C 
ATOM     15  C   UNL     1      15.234  18.391  41.958  0.00  0.00    +0.000 C 
ATOM     16  C   UNL     1      12.741  18.618  41.742  0.00  0.00    +0.000 C 
ATOM     17  C   UNL     1      14.105  19.072  41.153  0.00  0.00    +0.000 C 
BRANCH  14  18
ATOM     18  O   UNL     1      12.518  20.134  43.606  0.00  0.00    +0.000 OA
ATOM     19  H   UNL     1      12.515  20.210  44.584  0.00  0.00    +0.000 HD
ENDBRANCH  14  18
BRANCH  16  20
ATOM     20  O   UNL     1      11.708  19.432  41.147  0.00  0.00    +0.000 OA
ATOM     21  H   UNL     1      11.136  18.880  40.560  0.00  0.00    +0.000 HD
ENDBRANCH  16  20
BRANCH  17  22
ATOM     22  O   UNL     1      14.178  18.792  39.742  0.00  0.00    +0.000 OA
ATOM     23  H   UNL     1      14.934  18.214  39.525  0.00  0.00    +0.000 HD
ENDBRANCH  17  22
BRANCH  15  24
ATOM     24  C   UNL     1      16.673  18.727  41.521  0.00  0.00    +0.000 C 
BRANCH  24  25
ATOM     25  O   UNL     1      16.990  18.054  40.307  0.00  0.00    +0.000 OA
ATOM     26  H   UNL     1      16.812  18.689  39.588  0.00  0.00    +0.000 HD
ENDBRANCH  24  25
ENDBRANCH  15  24
ENDBRANCH   9  12
BRANCH   7  27
ATOM     27  C   UNL     1      10.222  14.725  44.023  0.00  0.00    +0.000 A 
ATOM     28  C   UNL     1       9.404  13.631  44.363  0.00  0.00    +0.000 A 
ATOM     29  C   UNL     1       9.619  15.908  43.559  0.00  0.00    +0.000 A 
ATOM     30  C   UNL     1       8.016  13.735  44.262  0.00  0.00    +0.000 A 
ATOM     31  C   UNL     1       8.233  15.999  43.465  0.00  0.00    +0.000 A 
ATOM     32  C   UNL     1       7.429  14.920  43.821  0.00  0.00    +0.000 A 
BRANCH  32  33
ATOM     33  O   UNL     1       6.074  15.039  43.728  0.00  0.00    +0.000 OA
ATOM     34  H   UNL     1       5.808  15.293  42.827  0.00  0.00    +0.000 HD
ENDBRANCH  32  33
ENDBRANCH   7  27
BRANCH   6  35
ATOM     35  O   UNL     1      16.396  13.325  45.297  0.00  0.00    +0.000 OA
ATOM     36  H   UNL     1      16.636  12.914  44.446  0.00  0.00    +0.000 HD
ENDBRANCH   6  35
BRANCH  11  37
ATOM     37  O   UNL     1      16.044  17.938  45.896  0.00  0.00    +0.000 OA
ATOM     38  H   UNL     1      15.508  18.708  45.619  0.00  0.00    +0.000 HD
ENDBRANCH  11  37
TORSDOF 10
ENDMDL
MODEL 12
REMARK VINA RESULT:    -5.327      3.242      6.304
REMARK INTER + INTRA:          -8.911
REMARK INTER:                  -8.075
REMARK INTRA:                  -0.836
REMARK UNBOUND:                -1.560
REMARK  Name = opt27.pdb
REMARK  10 active torsions:
REMARK  status: ('A' for Active; 'I' for Inactive)
REMARK    1  A    between atoms: C_6  and  O_10
REMARK    2  A    between atoms: C_7  and  C_12
REMARK    3  A    between atoms: C_9  and  C_14
REMARK    4  A    between atoms: C_13  and  O_17
REMARK    5  A    between atoms: C_19  and  O_23
REMARK    6  A    between atoms: C_22  and  C_27
REMARK    7  A    between atoms: C_24  and  O_28
REMARK    8  A    between atoms: C_25  and  O_29
REMARK    9  A    between atoms: C_26  and  O_30
REMARK   10  A    between atoms: C_27  and  O_31
REMARK                            x       y       z     vdW  Elec       q    Type
REMARK                         _______ _______ _______ _____ _____    ______ ____
ROOT
ATOM      1  O   UNL     1      13.330  11.411  44.552  0.00  0.00    +0.000 OA
ATOM      2  C   UNL     1      13.442  12.592  44.286  0.00  0.00    +0.000 A 
ATOM      3  C   UNL     1      12.406  13.397  43.617  0.00  0.00    +0.000 A 
ATOM      4  C   UNL     1      14.690  13.350  44.517  0.00  0.00    +0.000 A 
ATOM      5  C   UNL     1      12.729  14.725  43.361  0.00  0.00    +0.000 A 
ATOM      6  C   UNL     1      11.201  12.842  43.046  0.00  0.00    +0.000 A 
ATOM      7  C   UNL     1      14.769  14.424  44.181  0.00  0.00    +0.000 A 
ATOM      8  O   UNL     1      14.025  15.120  43.700  0.00  0.00    +0.000 OA
ATOM      9  C   UNL     1      11.924  15.509  42.431  0.00  0.00    +0.000 A 
ATOM     10  C   UNL     1      10.610  13.496  41.985  0.00  0.00    +0.000 A 
ATOM     11  C   UNL     1      11.008  14.778  41.640  0.00  0.00    +0.000 A 
ENDROOT
BRANCH   9  12
ATOM     12  C   UNL     1      11.957  17.023  42.097  0.00  0.00    +0.000 C 
ATOM     13  O   UNL     1      11.958  17.773  43.342  0.00  0.00    +0.000 OA
ATOM     14  C   UNL     1      13.024  17.709  41.186  0.00  0.00    +0.000 C 
ATOM     15  C   UNL     1      13.198  17.749  44.085  0.00  0.00    +0.000 C 
ATOM     16  C   UNL     1      14.358  18.132  41.891  0.00  0.00    +0.000 C 
ATOM     17  C   UNL     1      14.130  18.709  43.314  0.00  0.00    +0.000 C 
BRANCH  14  18
ATOM     18  O   UNL     1      12.380  18.918  40.754  0.00  0.00    +0.000 OA
ATOM     19  H   UNL     1      11.669  19.105  41.404  0.00  0.00    +0.000 HD
ENDBRANCH  14  18
BRANCH  16  20
ATOM     20  O   UNL     1      15.030  19.141  41.105  0.00  0.00    +0.000 OA
ATOM     21  H   UNL     1      14.572  20.010  41.205  0.00  0.00    +0.000 HD
ENDBRANCH  16  20
BRANCH  17  22
ATOM     22  O   UNL     1      15.383  18.932  43.989  0.00  0.00    +0.000 OA
ATOM     23  H   UNL     1      15.283  18.905  44.960  0.00  0.00    +0.000 HD
ENDBRANCH  17  22
BRANCH  15  24
ATOM     24  C   UNL     1      12.849  18.160  45.529  0.00  0.00    +0.000 C 
BRANCH  24  25
ATOM     25  O   UNL     1      14.035  18.294  46.305  0.00  0.00    +0.000 OA
ATOM     26  H   UNL     1      14.421  19.157  46.065  0.00  0.00    +0.000 HD
ENDBRANCH  24  25
ENDBRANCH  15  24
ENDBRANCH   9  12
BRANCH   7  27
ATOM     27  C   UNL     1      16.185  14.907  44.311  0.00  0.00    +0.000 A 
ATOM     28  C   UNL     1      17.230  14.300  43.589  0.00  0.00    +0.000 A 
ATOM     29  C   UNL     1      16.493  15.930  45.225  0.00  0.00    +0.000 A 
ATOM     30  C   UNL     1      18.545  14.731  43.764  0.00  0.00    +0.000 A 
ATOM     31  C   UNL     1      17.810  16.352  45.389  0.00  0.00    +0.000 A 
ATOM     32  C   UNL     1      18.836  15.761  44.657  0.00  0.00    +0.000 A 
BRANCH  32  33
ATOM     33  O   UNL     1      20.116  16.199  44.831  0.00  0.00    +0.000 OA
ATOM     34  H   UNL     1      20.421  16.031  45.740  0.00  0.00    +0.000 HD
ENDBRANCH  32  33
ENDBRANCH   7  27
BRANCH   6  35
ATOM     35  O   UNL     1      10.730  11.594  43.331  0.00  0.00    +0.000 OA
ATOM     36  H   UNL     1      10.755  11.458  44.297  0.00  0.00    +0.000 HD
ENDBRANCH   6  35
BRANCH  11  37
ATOM     37  O   UNL     1      10.415  15.314  40.534  0.00  0.00    +0.000 OA
ATOM     38  H   UNL     1      11.117  15.484  39.875  0.00  0.00    +0.000 HD
ENDBRANCH  11  37
TORSDOF 10
ENDMDL
MODEL 13
REMARK VINA RESULT:    -5.298      2.799      6.744
REMARK INTER + INTRA:          -8.871
REMARK INTER:                  -7.421
REMARK INTRA:                  -1.450
REMARK UNBOUND:                -1.560
REMARK  Name = opt27.pdb
REMARK  10 active torsions:
REMARK  status: ('A' for Active; 'I' for Inactive)
REMARK    1  A    between atoms: C_6  and  O_10
REMARK    2  A    between atoms: C_7  and  C_12
REMARK    3  A    between atoms: C_9  and  C_14
REMARK    4  A    between atoms: C_13  and  O_17
REMARK    5  A    between atoms: C_19  and  O_23
REMARK    6  A    between atoms: C_22  and  C_27
REMARK    7  A    between atoms: C_24  and  O_28
REMARK    8  A    between atoms: C_25  and  O_29
REMARK    9  A    between atoms: C_26  and  O_30
REMARK   10  A    between atoms: C_27  and  O_31
REMARK                            x       y       z     vdW  Elec       q    Type
REMARK                         _______ _______ _______ _____ _____    ______ ____
ROOT
ATOM      1  O   UNL     1      14.082  11.602  44.058  0.00  0.00    +0.000 OA
ATOM      2  C   UNL     1      13.447  12.611  43.817  0.00  0.00    +0.000 A 
ATOM      3  C   UNL     1      14.014  13.971  43.818  0.00  0.00    +0.000 A 
ATOM      4  C   UNL     1      11.987  12.603  43.588  0.00  0.00    +0.000 A 
ATOM      5  C   UNL     1      13.124  15.007  43.556  0.00  0.00    +0.000 A 
ATOM      6  C   UNL     1      15.349  14.285  44.268  0.00  0.00    +0.000 A 
ATOM      7  C   UNL     1      11.432  13.575  43.446  0.00  0.00    +0.000 A 
ATOM      8  O   UNL     1      11.785  14.644  43.398  0.00  0.00    +0.000 OA
ATOM      9  C   UNL     1      13.499  16.386  43.848  0.00  0.00    +0.000 A 
ATOM     10  C   UNL     1      15.595  15.542  44.780  0.00  0.00    +0.000 A 
ATOM     11  C   UNL     1      14.662  16.556  44.634  0.00  0.00    +0.000 A 
ENDROOT
BRANCH   9  12
ATOM     12  C   UNL     1      12.784  17.719  43.507  0.00  0.00    +0.000 C 
ATOM     13  O   UNL     1      13.755  18.631  42.925  0.00  0.00    +0.000 OA
ATOM     14  C   UNL     1      11.503  17.841  42.622  0.00  0.00    +0.000 C 
ATOM     15  C   UNL     1      14.168  18.323  41.574  0.00  0.00    +0.000 C 
ATOM     16  C   UNL     1      11.741  17.909  41.075  0.00  0.00    +0.000 C 
ATOM     17  C   UNL     1      12.979  18.767  40.695  0.00  0.00    +0.000 C 
BRANCH  14  18
ATOM     18  O   UNL     1      10.934  19.100  43.012  0.00  0.00    +0.000 OA
ATOM     19  H   UNL     1      10.794  19.056  43.983  0.00  0.00    +0.000 HD
ENDBRANCH  14  18
BRANCH  16  20
ATOM     20  O   UNL     1      10.586  18.483  40.425  0.00  0.00    +0.000 OA
ATOM     21  H   UNL     1      10.870  19.158  39.763  0.00  0.00    +0.000 HD
ENDBRANCH  16  20
BRANCH  17  22
ATOM     22  O   UNL     1      13.260  18.673  39.285  0.00  0.00    +0.000 OA
ATOM     23  H   UNL     1      12.555  19.080  38.746  0.00  0.00    +0.000 HD
ENDBRANCH  17  22
BRANCH  15  24
ATOM     24  C   UNL     1      15.496  19.072  41.343  0.00  0.00    +0.000 C 
BRANCH  24  25
ATOM     25  O   UNL     1      16.185  18.523  40.225  0.00  0.00    +0.000 OA
ATOM     26  H   UNL     1      15.888  19.030  39.446  0.00  0.00    +0.000 HD
ENDBRANCH  24  25
ENDBRANCH  15  24
ENDBRANCH   9  12
BRANCH   7  27
ATOM     27  C   UNL     1       9.950  13.334  43.462  0.00  0.00    +0.000 A 
ATOM     28  C   UNL     1       9.292  12.773  42.351  0.00  0.00    +0.000 A 
ATOM     29  C   UNL     1       9.187  13.743  44.570  0.00  0.00    +0.000 A 
ATOM     30  C   UNL     1       7.907  12.606  42.368  0.00  0.00    +0.000 A 
ATOM     31  C   UNL     1       7.806  13.569  44.575  0.00  0.00    +0.000 A 
ATOM     32  C   UNL     1       7.164  12.996  43.481  0.00  0.00    +0.000 A 
BRANCH  32  33
ATOM     33  O   UNL     1       5.811  12.828  43.515  0.00  0.00    +0.000 OA
ATOM     34  H   UNL     1       5.437  12.837  42.616  0.00  0.00    +0.000 HD
ENDBRANCH  32  33
ENDBRANCH   7  27
BRANCH   6  35
ATOM     35  O   UNL     1      16.334  13.356  44.436  0.00  0.00    +0.000 OA
ATOM     36  H   UNL     1      17.185  13.816  44.560  0.00  0.00    +0.000 HD
ENDBRANCH   6  35
BRANCH  11  37
ATOM     37  O   UNL     1      14.965  17.743  45.234  0.00  0.00    +0.000 OA
ATOM     38  H   UNL     1      14.669  17.687  46.165  0.00  0.00    +0.000 HD
ENDBRANCH  11  37
TORSDOF 10
ENDMDL
MODEL 14
REMARK VINA RESULT:    -5.243      2.704      6.157
REMARK INTER + INTRA:          -8.795
REMARK INTER:                  -7.246
REMARK INTRA:                  -1.549
REMARK UNBOUND:                -1.560
REMARK  Name = opt27.pdb
REMARK  10 active torsions:
REMARK  status: ('A' for Active; 'I' for Inactive)
REMARK    1  A    between atoms: C_6  and  O_10
REMARK    2  A    between atoms: C_7  and  C_12
REMARK    3  A    between atoms: C_9  and  C_14
REMARK    4  A    between atoms: C_13  and  O_17
REMARK    5  A    between atoms: C_19  and  O_23
REMARK    6  A    between atoms: C_22  and  C_27
REMARK    7  A    between atoms: C_24  and  O_28
REMARK    8  A    between atoms: C_25  and  O_29
REMARK    9  A    between atoms: C_26  and  O_30
REMARK   10  A    between atoms: C_27  and  O_31
REMARK                            x       y       z     vdW  Elec       q    Type
REMARK                         _______ _______ _______ _____ _____    ______ ____
ROOT
ATOM      1  O   UNL     1       7.941  13.480  45.400  0.00  0.00    +0.000 OA
ATOM      2  C   UNL     1       8.567  14.005  44.499  0.00  0.00    +0.000 A 
ATOM      3  C   UNL     1       7.954  14.672  43.338  0.00  0.00    +0.000 A 
ATOM      4  C   UNL     1      10.042  13.950  44.411  0.00  0.00    +0.000 A 
ATOM      5  C   UNL     1       8.832  15.183  42.389  0.00  0.00    +0.000 A 
ATOM      6  C   UNL     1       6.541  14.637  43.045  0.00  0.00    +0.000 A 
ATOM      7  C   UNL     1      10.570  14.385  43.514  0.00  0.00    +0.000 A 
ATOM      8  O   UNL     1      10.189  14.938  42.609  0.00  0.00    +0.000 OA
ATOM      9  C   UNL     1       8.343  15.565  41.069  0.00  0.00    +0.000 A 
ATOM     10  C   UNL     1       6.136  14.748  41.730  0.00  0.00    +0.000 A 
ATOM     11  C   UNL     1       7.032  15.139  40.749  0.00  0.00    +0.000 A 
ENDROOT
BRANCH   9  12
ATOM     12  C   UNL     1       9.054  16.301  39.903  0.00  0.00    +0.000 C 
ATOM     13  O   UNL     1       8.566  17.670  39.853  0.00  0.00    +0.000 OA
ATOM     14  C   UNL     1      10.603  16.394  39.724  0.00  0.00    +0.000 C 
ATOM     15  C   UNL     1       9.042  18.541  40.903  0.00  0.00    +0.000 C 
ATOM     16  C   UNL     1      11.316  17.551  40.505  0.00  0.00    +0.000 C 
ATOM     17  C   UNL     1      10.497  18.870  40.505  0.00  0.00    +0.000 C 
BRANCH  14  18
ATOM     18  O   UNL     1      10.770  16.670  38.325  0.00  0.00    +0.000 OA
ATOM     19  H   UNL     1      10.820  17.646  38.237  0.00  0.00    +0.000 HD
ENDBRANCH  14  18
BRANCH  16  20
ATOM     20  O   UNL     1      12.602  17.825  39.908  0.00  0.00    +0.000 OA
ATOM     21  H   UNL     1      12.676  17.368  39.036  0.00  0.00    +0.000 HD
ENDBRANCH  16  20
BRANCH  17  22
ATOM     22  O   UNL     1      11.103  19.855  41.364  0.00  0.00    +0.000 OA
ATOM     23  H   UNL     1      10.511  20.615  41.519  0.00  0.00    +0.000 HD
ENDBRANCH  17  22
BRANCH  15  24
ATOM     24  C   UNL     1       8.068  19.735  40.953  0.00  0.00    +0.000 C 
BRANCH  24  25
ATOM     25  O   UNL     1       8.343  20.549  42.089  0.00  0.00    +0.000 OA
ATOM     26  H   UNL     1       7.915  21.409  41.917  0.00  0.00    +0.000 HD
ENDBRANCH  24  25
ENDBRANCH  15  24
ENDBRANCH   9  12
BRANCH   7  27
ATOM     27  C   UNL     1      12.024  14.011  43.536  0.00  0.00    +0.000 A 
ATOM     28  C   UNL     1      12.570  13.274  44.604  0.00  0.00    +0.000 A 
ATOM     29  C   UNL     1      12.878  14.465  42.515  0.00  0.00    +0.000 A 
ATOM     30  C   UNL     1      13.934  12.982  44.629  0.00  0.00    +0.000 A 
ATOM     31  C   UNL     1      14.237  14.164  42.551  0.00  0.00    +0.000 A 
ATOM     32  C   UNL     1      14.767  13.419  43.600  0.00  0.00    +0.000 A 
BRANCH  32  33
ATOM     33  O   UNL     1      16.100  13.131  43.606  0.00  0.00    +0.000 OA
ATOM     34  H   UNL     1      16.260  12.218  43.308  0.00  0.00    +0.000 HD
ENDBRANCH  32  33
ENDBRANCH   7  27
BRANCH   6  35
ATOM     35  O   UNL     1       5.585  14.271  43.947  0.00  0.00    +0.000 OA
ATOM     36  H   UNL     1       4.718  14.253  43.500  0.00  0.00    +0.000 HD
ENDBRANCH   6  35
BRANCH  11  37
ATOM     37  O   UNL     1       6.557  15.154  39.471  0.00  0.00    +0.000 OA
ATOM     38  H   UNL     1       6.594  14.237  39.131  0.00  0.00    +0.000 HD
ENDBRANCH  11  37
TORSDOF 10
ENDMDL
MODEL 15
REMARK VINA RESULT:    -5.213      2.372      6.095
REMARK INTER + INTRA:          -8.754
REMARK INTER:                  -7.287
REMARK INTRA:                  -1.467
REMARK UNBOUND:                -1.560
REMARK  Name = opt27.pdb
REMARK  10 active torsions:
REMARK  status: ('A' for Active; 'I' for Inactive)
REMARK    1  A    between atoms: C_6  and  O_10
REMARK    2  A    between atoms: C_7  and  C_12
REMARK    3  A    between atoms: C_9  and  C_14
REMARK    4  A    between atoms: C_13  and  O_17
REMARK    5  A    between atoms: C_19  and  O_23
REMARK    6  A    between atoms: C_22  and  C_27
REMARK    7  A    between atoms: C_24  and  O_28
REMARK    8  A    between atoms: C_25  and  O_29
REMARK    9  A    between atoms: C_26  and  O_30
REMARK   10  A    between atoms: C_27  and  O_31
REMARK                            x       y       z     vdW  Elec       q    Type
REMARK                         _______ _______ _______ _____ _____    ______ ____
ROOT
ATOM      1  O   UNL     1       7.546  11.273  43.240  0.00  0.00    +0.000 OA
ATOM      2  C   UNL     1       8.207  12.282  43.079  0.00  0.00    +0.000 A 
ATOM      3  C   UNL     1       7.760  13.457  42.311  0.00  0.00    +0.000 A 
ATOM      4  C   UNL     1       9.599  12.412  43.560  0.00  0.00    +0.000 A 
ATOM      5  C   UNL     1       8.669  14.503  42.205  0.00  0.00    +0.000 A 
ATOM      6  C   UNL     1       6.554  13.487  41.518  0.00  0.00    +0.000 A 
ATOM      7  C   UNL     1      10.195  13.338  43.317  0.00  0.00    +0.000 A 
ATOM      8  O   UNL     1       9.926  14.287  42.774  0.00  0.00    +0.000 OA
ATOM      9  C   UNL     1       8.464  15.555  41.216  0.00  0.00    +0.000 A 
ATOM     10  C   UNL     1       6.504  14.327  40.424  0.00  0.00    +0.000 A 
ATOM     11  C   UNL     1       7.474  15.298  40.239  0.00  0.00    +0.000 A 
ENDROOT
BRANCH   9  12
ATOM     12  C   UNL     1       9.211  16.896  40.999  0.00  0.00    +0.000 C 
ATOM     13  O   UNL     1       8.228  17.960  40.870  0.00  0.00    +0.000 OA
ATOM     14  C   UNL     1      10.324  17.456  41.941  0.00  0.00    +0.000 C 
ATOM     15  C   UNL     1       7.563  18.346  42.094  0.00  0.00    +0.000 C 
ATOM     16  C   UNL     1       9.824  18.270  43.185  0.00  0.00    +0.000 C 
ATOM     17  C   UNL     1       8.612  19.183  42.858  0.00  0.00    +0.000 C 
BRANCH  14  18
ATOM     18  O   UNL     1      11.050  18.373  41.109  0.00  0.00    +0.000 OA
ATOM     19  H   UNL     1      11.450  19.039  41.707  0.00  0.00    +0.000 HD
ENDBRANCH  14  18
BRANCH  16  20
ATOM     20  O   UNL     1      10.890  19.107  43.684  0.00  0.00    +0.000 OA
ATOM     21  H   UNL     1      11.316  18.683  44.467  0.00  0.00    +0.000 HD
ENDBRANCH  16  20
BRANCH  17  22
ATOM     22  O   UNL     1       8.082  19.787  44.054  0.00  0.00    +0.000 OA
ATOM     23  H   UNL     1       7.697  19.121  44.656  0.00  0.00    +0.000 HD
ENDBRANCH  17  22
BRANCH  15  24
ATOM     24  C   UNL     1       6.279  19.090  41.676  0.00  0.00    +0.000 C 
BRANCH  24  25
ATOM     25  O   UNL     1       6.487  20.498  41.720  0.00  0.00    +0.000 OA
ATOM     26  H   UNL     1       5.990  20.870  40.968  0.00  0.00    +0.000 HD
ENDBRANCH  24  25
ENDBRANCH  15  24
ENDBRANCH   9  12
BRANCH   7  27
ATOM     27  C   UNL     1      11.633  13.146  43.707  0.00  0.00    +0.000 A 
ATOM     28  C   UNL     1      12.328  11.970  43.367  0.00  0.00    +0.000 A 
ATOM     29  C   UNL     1      12.281  14.118  44.489  0.00  0.00    +0.000 A 
ATOM     30  C   UNL     1      13.648  11.790  43.783  0.00  0.00    +0.000 A 
ATOM     31  C   UNL     1      13.599  13.928  44.896  0.00  0.00    +0.000 A 
ATOM     32  C   UNL     1      14.287  12.771  44.540  0.00  0.00    +0.000 A 
BRANCH  32  33
ATOM     33  O   UNL     1      15.580  12.614  44.944  0.00  0.00    +0.000 OA
ATOM     34  H   UNL     1      15.620  12.228  45.837  0.00  0.00    +0.000 HD
ENDBRANCH  32  33
ENDBRANCH   7  27
BRANCH   6  35
ATOM     35  O   UNL     1       5.544  12.577  41.634  0.00  0.00    +0.000 OA
ATOM     36  H   UNL     1       4.755  12.921  41.174  0.00  0.00    +0.000 HD
ENDBRANCH   6  35
BRANCH  11  37
ATOM     37  O   UNL     1       7.378  16.033  39.093  0.00  0.00    +0.000 OA
ATOM     38  H   UNL     1       7.357  15.407  38.341  0.00  0.00    +0.000 HD
ENDBRANCH  11  37
TORSDOF 10
ENDMDL
MODEL 16
REMARK VINA RESULT:    -5.211      4.700      8.949
REMARK INTER + INTRA:          -8.751
REMARK INTER:                  -7.177
REMARK INTRA:                  -1.574
REMARK UNBOUND:                -1.560
REMARK  Name = opt27.pdb
REMARK  10 active torsions:
REMARK  status: ('A' for Active; 'I' for Inactive)
REMARK    1  A    between atoms: C_6  and  O_10
REMARK    2  A    between atoms: C_7  and  C_12
REMARK    3  A    between atoms: C_9  and  C_14
REMARK    4  A    between atoms: C_13  and  O_17
REMARK    5  A    between atoms: C_19  and  O_23
REMARK    6  A    between atoms: C_22  and  C_27
REMARK    7  A    between atoms: C_24  and  O_28
REMARK    8  A    between atoms: C_25  and  O_29
REMARK    9  A    between atoms: C_26  and  O_30
REMARK   10  A    between atoms: C_27  and  O_31
REMARK                            x       y       z     vdW  Elec       q    Type
REMARK                         _______ _______ _______ _____ _____    ______ ____
ROOT
ATOM      1  O   UNL     1      17.475  13.510  40.678  0.00  0.00    +0.000 OA
ATOM      2  C   UNL     1      17.071  14.230  41.571  0.00  0.00    +0.000 A 
ATOM      3  C   UNL     1      17.922  15.142  42.355  0.00  0.00    +0.000 A 
ATOM      4  C   UNL     1      15.673  14.204  42.050  0.00  0.00    +0.000 A 
ATOM      5  C   UNL     1      17.288  15.859  43.363  0.00  0.00    +0.000 A 
ATOM      6  C   UNL     1      19.363  15.167  42.272  0.00  0.00    +0.000 A 
ATOM      7  C   UNL     1      15.367  14.834  42.934  0.00  0.00    +0.000 A 
ATOM      8  O   UNL     1      15.935  15.577  43.563  0.00  0.00    +0.000 OA
ATOM      9  C   UNL     1      18.074  16.530  44.392  0.00  0.00    +0.000 A 
ATOM     10  C   UNL     1      20.082  15.574  43.377  0.00  0.00    +0.000 A 
ATOM     11  C   UNL     1      19.444  16.183  44.445  0.00  0.00    +0.000 A 
ENDROOT
BRANCH   9  12
ATOM     12  C   UNL     1      17.644  17.516  45.509  0.00  0.00    +0.000 C 
ATOM     13  O   UNL     1      18.349  18.773  45.316  0.00  0.00    +0.000 OA
ATOM     14  C   UNL     1      16.165  17.902  45.832  0.00  0.00    +0.000 C 
ATOM     15  C   UNL     1      17.891  19.581  44.207  0.00  0.00    +0.000 C 
ATOM     16  C   UNL     1      15.556  19.064  44.974  0.00  0.00    +0.000 C 
ATOM     17  C   UNL     1      16.570  20.208  44.704  0.00  0.00    +0.000 C 
BRANCH  14  18
ATOM     18  O   UNL     1      16.222  18.372  47.188  0.00  0.00    +0.000 OA
ATOM     19  H   UNL     1      15.468  17.958  47.660  0.00  0.00    +0.000 HD
ENDBRANCH  14  18
BRANCH  16  20
ATOM     20  O   UNL     1      14.416  19.631  45.655  0.00  0.00    +0.000 OA
ATOM     21  H   UNL     1      14.060  18.988  46.315  0.00  0.00    +0.000 HD
ENDBRANCH  16  20
BRANCH  17  22
ATOM     22  O   UNL     1      16.029  21.173  43.781  0.00  0.00    +0.000 OA
ATOM     23  H   UNL     1      16.731  21.631  43.281  0.00  0.00    +0.000 HD
ENDBRANCH  17  22
BRANCH  15  24
ATOM     24  C   UNL     1      19.031  20.569  43.890  0.00  0.00    +0.000 C 
BRANCH  24  25
ATOM     25  O   UNL     1      18.748  21.280  42.689  0.00  0.00    +0.000 OA
ATOM     26  H   UNL     1      19.203  20.799  41.973  0.00  0.00    +0.000 HD
ENDBRANCH  24  25
ENDBRANCH  15  24
ENDBRANCH   9  12
BRANCH   7  27
ATOM     27  C   UNL     1      13.978  14.472  43.374  0.00  0.00    +0.000 A 
ATOM     28  C   UNL     1      13.246  15.310  44.237  0.00  0.00    +0.000 A 
ATOM     29  C   UNL     1      13.420  13.241  42.985  0.00  0.00    +0.000 A 
ATOM     30  C   UNL     1      11.977  14.929  44.675  0.00  0.00    +0.000 A 
ATOM     31  C   UNL     1      12.152  12.874  43.428  0.00  0.00    +0.000 A 
ATOM     32  C   UNL     1      11.426  13.716  44.265  0.00  0.00    +0.000 A 
BRANCH  32  33
ATOM     33  O   UNL     1      10.182  13.336  44.676  0.00  0.00    +0.000 OA
ATOM     34  H   UNL     1       9.500  13.927  44.312  0.00  0.00    +0.000 HD
ENDBRANCH  32  33
ENDBRANCH   7  27
BRANCH   6  35
ATOM     35  O   UNL     1      20.077  14.600  41.256  0.00  0.00    +0.000 OA
ATOM     36  H   UNL     1      21.022  14.596  41.498  0.00  0.00    +0.000 HD
ENDBRANCH   6  35
BRANCH  11  37
ATOM     37  O   UNL     1      20.228  16.486  45.520  0.00  0.00    +0.000 OA
ATOM     38  H   UNL     1      21.118  16.712  45.183  0.00  0.00    +0.000 HD
ENDBRANCH  11  37
TORSDOF 10
ENDMDL
MODEL 17
REMARK VINA RESULT:    -5.148      2.218      2.498
REMARK INTER + INTRA:          -8.664
REMARK INTER:                  -7.397
REMARK INTRA:                  -1.267
REMARK UNBOUND:                -1.560
REMARK  Name = opt27.pdb
REMARK  10 active torsions:
REMARK  status: ('A' for Active; 'I' for Inactive)
REMARK    1  A    between atoms: C_6  and  O_10
REMARK    2  A    between atoms: C_7  and  C_12
REMARK    3  A    between atoms: C_9  and  C_14
REMARK    4  A    between atoms: C_13  and  O_17
REMARK    5  A    between atoms: C_19  and  O_23
REMARK    6  A    between atoms: C_22  and  C_27
REMARK    7  A    between atoms: C_24  and  O_28
REMARK    8  A    between atoms: C_25  and  O_29
REMARK    9  A    between atoms: C_26  and  O_30
REMARK   10  A    between atoms: C_27  and  O_31
REMARK                            x       y       z     vdW  Elec       q    Type
REMARK                         _______ _______ _______ _____ _____    ______ ____
ROOT
ATOM      1  O   UNL     1      15.863  13.177  45.227  0.00  0.00    +0.000 OA
ATOM      2  C   UNL     1      15.026  13.852  44.660  0.00  0.00    +0.000 A 
ATOM      3  C   UNL     1      13.808  13.314  44.031  0.00  0.00    +0.000 A 
ATOM      4  C   UNL     1      15.183  15.307  44.446  0.00  0.00    +0.000 A 
ATOM      5  C   UNL     1      12.986  14.238  43.396  0.00  0.00    +0.000 A 
ATOM      6  C   UNL     1      13.545  11.904  43.866  0.00  0.00    +0.000 A 
ATOM      7  C   UNL     1      14.415  15.875  43.845  0.00  0.00    +0.000 A 
ATOM      8  O   UNL     1      13.448  15.555  43.363  0.00  0.00    +0.000 OA
ATOM      9  C   UNL     1      11.947  13.785  42.479  0.00  0.00    +0.000 A 
ATOM     10  C   UNL     1      12.750  11.500  42.813  0.00  0.00    +0.000 A 
ATOM     11  C   UNL     1      12.016  12.426  42.090  0.00  0.00    +0.000 A 
ENDROOT
BRANCH   9  12
ATOM     12  C   UNL     1      10.805  14.568  41.780  0.00  0.00    +0.000 C 
ATOM     13  O   UNL     1       9.573  13.808  41.910  0.00  0.00    +0.000 OA
ATOM     14  C   UNL     1      10.425  16.051  42.091  0.00  0.00    +0.000 C 
ATOM     15  C   UNL     1       8.978  13.803  43.227  0.00  0.00    +0.000 C 
ATOM     16  C   UNL     1       9.446  16.270  43.296  0.00  0.00    +0.000 C 
ATOM     17  C   UNL     1       8.326  15.196  43.363  0.00  0.00    +0.000 C 
BRANCH  14  18
ATOM     18  O   UNL     1       9.734  16.484  40.909  0.00  0.00    +0.000 OA
ATOM     19  H   UNL     1       8.799  16.627  41.168  0.00  0.00    +0.000 HD
ENDBRANCH  14  18
BRANCH  16  20
ATOM     20  O   UNL     1       8.815  17.564  43.185  0.00  0.00    +0.000 OA
ATOM     21  H   UNL     1       8.983  17.949  42.292  0.00  0.00    +0.000 HD
ENDBRANCH  16  20
BRANCH  17  22
ATOM     22  O   UNL     1       7.549  15.334  44.568  0.00  0.00    +0.000 OA
ATOM     23  H   UNL     1       7.984  15.922  45.215  0.00  0.00    +0.000 HD
ENDBRANCH  17  22
BRANCH  15  24
ATOM     24  C   UNL     1       8.015  12.599  43.266  0.00  0.00    +0.000 C 
BRANCH  24  25
ATOM     25  O   UNL     1       7.384  12.431  42.001  0.00  0.00    +0.000 OA
ATOM     26  H   UNL     1       7.152  11.485  41.936  0.00  0.00    +0.000 HD
ENDBRANCH  24  25
ENDBRANCH  15  24
ENDBRANCH   9  12
BRANCH   7  27
ATOM     27  C   UNL     1      14.899  17.269  43.570  0.00  0.00    +0.000 A 
ATOM     28  C   UNL     1      15.861  17.882  44.394  0.00  0.00    +0.000 A 
ATOM     29  C   UNL     1      14.332  18.011  42.518  0.00  0.00    +0.000 A 
ATOM     30  C   UNL     1      16.259  19.197  44.150  0.00  0.00    +0.000 A 
ATOM     31  C   UNL     1      14.739  19.322  42.284  0.00  0.00    +0.000 A 
ATOM     32  C   UNL     1      15.705  19.915  43.091  0.00  0.00    +0.000 A 
BRANCH  32  33
ATOM     33  O   UNL     1      16.092  21.197  42.835  0.00  0.00    +0.000 OA
ATOM     34  H   UNL     1      17.049  21.244  42.663  0.00  0.00    +0.000 HD
ENDBRANCH  32  33
ENDBRANCH   7  27
BRANCH   6  35
ATOM     35  O   UNL     1      14.212  10.922  44.537  0.00  0.00    +0.000 OA
ATOM     36  H   UNL     1      15.106  10.829  44.158  0.00  0.00    +0.000 HD
ENDBRANCH   6  35
BRANCH  11  37
ATOM     37  O   UNL     1      11.315  11.940  41.026  0.00  0.00    +0.000 OA
ATOM     38  H   UNL     1      11.963  11.629  40.362  0.00  0.00    +0.000 HD
ENDBRANCH  11  37
TORSDOF 10
ENDMDL
MODEL 18
REMARK VINA RESULT:    -5.074      3.289      6.157
REMARK INTER + INTRA:          -8.561
REMARK INTER:                  -7.088
REMARK INTRA:                  -1.473
REMARK UNBOUND:                -1.560
REMARK  Name = opt27.pdb
REMARK  10 active torsions:
REMARK  status: ('A' for Active; 'I' for Inactive)
REMARK    1  A    between atoms: C_6  and  O_10
REMARK    2  A    between atoms: C_7  and  C_12
REMARK    3  A    between atoms: C_9  and  C_14
REMARK    4  A    between atoms: C_13  and  O_17
REMARK    5  A    between atoms: C_19  and  O_23
REMARK    6  A    between atoms: C_22  and  C_27
REMARK    7  A    between atoms: C_24  and  O_28
REMARK    8  A    between atoms: C_25  and  O_29
REMARK    9  A    between atoms: C_26  and  O_30
REMARK   10  A    between atoms: C_27  and  O_31
REMARK                            x       y       z     vdW  Elec       q    Type
REMARK                         _______ _______ _______ _____ _____    ______ ____
ROOT
ATOM      1  O   UNL     1      12.919  11.774  44.452  0.00  0.00    +0.000 OA
ATOM      2  C   UNL     1      13.196  12.823  43.902  0.00  0.00    +0.000 A 
ATOM      3  C   UNL     1      12.210  13.721  43.277  0.00  0.00    +0.000 A 
ATOM      4  C   UNL     1      14.588  13.280  43.706  0.00  0.00    +0.000 A 
ATOM      5  C   UNL     1      12.719  14.859  42.662  0.00  0.00    +0.000 A 
ATOM      6  C   UNL     1      10.818  13.384  43.095  0.00  0.00    +0.000 A 
ATOM      7  C   UNL     1      14.795  14.222  43.121  0.00  0.00    +0.000 A 
ATOM      8  O   UNL     1      14.111  14.980  42.644  0.00  0.00    +0.000 OA
ATOM      9  C   UNL     1      11.887  15.633  41.749  0.00  0.00    +0.000 A 
ATOM     10  C   UNL     1      10.132  13.958  42.045  0.00  0.00    +0.000 A 
ATOM     11  C   UNL     1      10.680  15.018  41.341  0.00  0.00    +0.000 A 
ENDROOT
BRANCH   9  12
ATOM     12  C   UNL     1      12.138  17.006  41.072  0.00  0.00    +0.000 C 
ATOM     13  O   UNL     1      10.939  17.817  41.209  0.00  0.00    +0.000 OA
ATOM     14  C   UNL     1      13.334  17.955  41.403  0.00  0.00    +0.000 C 
ATOM     15  C   UNL     1      10.686  18.338  42.533  0.00  0.00    +0.000 C 
ATOM     16  C   UNL     1      13.128  18.920  42.621  0.00  0.00    +0.000 C 
ATOM     17  C   UNL     1      11.689  19.501  42.691  0.00  0.00    +0.000 C 
BRANCH  14  18
ATOM     18  O   UNL     1      13.451  18.779  40.234  0.00  0.00    +0.000 OA
ATOM     19  H   UNL     1      12.908  18.355  39.536  0.00  0.00    +0.000 HD
ENDBRANCH  14  18
BRANCH  16  20
ATOM     20  O   UNL     1      14.051  20.026  42.532  0.00  0.00    +0.000 OA
ATOM     21  H   UNL     1      14.434  20.222  43.421  0.00  0.00    +0.000 HD
ENDBRANCH  16  20
BRANCH  17  22
ATOM     22  O   UNL     1      11.492  20.248  43.907  0.00  0.00    +0.000 OA
ATOM     23  H   UNL     1      11.480  21.211  43.744  0.00  0.00    +0.000 HD
ENDBRANCH  17  22
BRANCH  15  24
ATOM     24  C   UNL     1       9.193  18.723  42.571  0.00  0.00    +0.000 C 
BRANCH  24  25
ATOM     25  O   UNL     1       8.412  17.740  41.901  0.00  0.00    +0.000 OA
ATOM     26  H   UNL     1       8.911  17.496  41.098  0.00  0.00    +0.000 HD
ENDBRANCH  24  25
ENDBRANCH  15  24
ENDBRANCH   9  12
BRANCH   7  27
ATOM     27  C   UNL     1      16.268  14.358  42.860  0.00  0.00    +0.000 A 
ATOM     28  C   UNL     1      16.781  14.316  41.550  0.00  0.00    +0.000 A 
ATOM     29  C   UNL     1      17.163  14.453  43.940  0.00  0.00    +0.000 A 
ATOM     30  C   UNL     1      18.158  14.392  41.334  0.00  0.00    +0.000 A 
ATOM     31  C   UNL     1      18.534  14.531  43.711  0.00  0.00    +0.000 A 
ATOM     32  C   UNL     1      19.034  14.508  42.412  0.00  0.00    +0.000 A 
BRANCH  32  33
ATOM     33  O   UNL     1      20.381  14.594  42.215  0.00  0.00    +0.000 OA
ATOM     34  H   UNL     1      20.681  13.933  41.567  0.00  0.00    +0.000 HD
ENDBRANCH  32  33
ENDBRANCH   7  27
BRANCH   6  35
ATOM     35  O   UNL     1      10.191  12.363  43.747  0.00  0.00    +0.000 OA
ATOM     36  H   UNL     1      10.166  12.565  44.701  0.00  0.00    +0.000 HD
ENDBRANCH   6  35
BRANCH  11  37
ATOM     37  O   UNL     1       9.958  15.472  40.277  0.00  0.00    +0.000 OA
ATOM     38  H   UNL     1      10.491  15.322  39.471  0.00  0.00    +0.000 HD
ENDBRANCH  11  37
TORSDOF 10
ENDMDL
MODEL 19
REMARK VINA RESULT:    -4.692      3.209      7.149
REMARK INTER + INTRA:          -8.035
REMARK INTER:                  -6.471
REMARK INTRA:                  -1.564
REMARK UNBOUND:                -1.560
REMARK  Name = opt27.pdb
REMARK  10 active torsions:
REMARK  status: ('A' for Active; 'I' for Inactive)
REMARK    1  A    between atoms: C_6  and  O_10
REMARK    2  A    between atoms: C_7  and  C_12
REMARK    3  A    between atoms: C_9  and  C_14
REMARK    4  A    between atoms: C_13  and  O_17
REMARK    5  A    between atoms: C_19  and  O_23
REMARK    6  A    between atoms: C_22  and  C_27
REMARK    7  A    between atoms: C_24  and  O_28
REMARK    8  A    between atoms: C_25  and  O_29
REMARK    9  A    between atoms: C_26  and  O_30
REMARK   10  A    between atoms: C_27  and  O_31
REMARK                            x       y       z     vdW  Elec       q    Type
REMARK                         _______ _______ _______ _____ _____    ______ ____
ROOT
ATOM      1  O   UNL     1      16.928  18.406  45.034  0.00  0.00    +0.000 OA
ATOM      2  C   UNL     1      15.877  17.994  44.582  0.00  0.00    +0.000 A 
ATOM      3  C   UNL     1      14.746  18.851  44.189  0.00  0.00    +0.000 A 
ATOM      4  C   UNL     1      15.568  16.553  44.464  0.00  0.00    +0.000 A 
ATOM      5  C   UNL     1      13.610  18.195  43.727  0.00  0.00    +0.000 A 
ATOM      6  C   UNL     1      14.684  20.270  44.449  0.00  0.00    +0.000 A 
ATOM      7  C   UNL     1      14.549  16.222  44.112  0.00  0.00    +0.000 A 
ATOM      8  O   UNL     1      13.647  16.799  43.761  0.00  0.00    +0.000 OA
ATOM      9  C   UNL     1      12.343  18.910  43.623  0.00  0.00    +0.000 A 
ATOM     10  C   UNL     1      13.447  20.861  44.597  0.00  0.00    +0.000 A 
ATOM     11  C   UNL     1      12.293  20.174  44.255  0.00  0.00    +0.000 A 
ENDROOT
BRANCH   9  12
ATOM     12  C   UNL     1      10.991  18.480  42.996  0.00  0.00    +0.000 C 
ATOM     13  O   UNL     1      10.751  19.290  41.812  0.00  0.00    +0.000 OA
ATOM     14  C   UNL     1      10.622  17.017  42.593  0.00  0.00    +0.000 C 
ATOM     15  C   UNL     1      11.567  18.970  40.662  0.00  0.00    +0.000 C 
ATOM     16  C   UNL     1      11.096  16.556  41.172  0.00  0.00    +0.000 C 
ATOM     17  C   UNL     1      10.952  17.670  40.099  0.00  0.00    +0.000 C 
BRANCH  14  18
ATOM     18  O   UNL     1       9.187  17.017  42.573  0.00  0.00    +0.000 OA
ATOM     19  H   UNL     1       8.915  16.329  41.929  0.00  0.00    +0.000 HD
ENDBRANCH  14  18
BRANCH  16  20
ATOM     20  O   UNL     1      10.318  15.419  40.740  0.00  0.00    +0.000 OA
ATOM     21  H   UNL     1      10.914  14.661  40.528  0.00  0.00    +0.000 HD
ENDBRANCH  16  20
BRANCH  17  22
ATOM     22  O   UNL     1      11.546  17.266  38.851  0.00  0.00    +0.000 OA
ATOM     23  H   UNL     1      11.432  17.943  38.158  0.00  0.00    +0.000 HD
ENDBRANCH  17  22
BRANCH  15  24
ATOM     24  C   UNL     1      11.512  20.200  39.734  0.00  0.00    +0.000 C 
BRANCH  24  25
ATOM     25  O   UNL     1      12.393  20.025  38.630  0.00  0.00    +0.000 OA
ATOM     26  H   UNL     1      12.588  19.070  38.585  0.00  0.00    +0.000 HD
ENDBRANCH  24  25
ENDBRANCH  15  24
ENDBRANCH   9  12
BRANCH   7  27
ATOM     27  C   UNL     1      14.394  14.738  44.291  0.00  0.00    +0.000 A 
ATOM     28  C   UNL     1      15.514  13.908  44.484  0.00  0.00    +0.000 A 
ATOM     29  C   UNL     1      13.120  14.151  44.191  0.00  0.00    +0.000 A 
ATOM     30  C   UNL     1      15.351  12.527  44.597  0.00  0.00    +0.000 A 
ATOM     31  C   UNL     1      12.971  12.772  44.308  0.00  0.00    +0.000 A 
ATOM     32  C   UNL     1      14.081  11.958  44.517  0.00  0.00    +0.000 A 
BRANCH  32  33
ATOM     33  O   UNL     1      13.906  10.611  44.637  0.00  0.00    +0.000 OA
ATOM     34  H   UNL     1      14.503  10.129  44.037  0.00  0.00    +0.000 HD
ENDBRANCH  32  33
ENDBRANCH   7  27
BRANCH   6  35
ATOM     35  O   UNL     1      15.766  21.029  44.786  0.00  0.00    +0.000 OA
ATOM     36  H   UNL     1      15.494  21.965  44.833  0.00  0.00    +0.000 HD
ENDBRANCH   6  35
BRANCH  11  37
ATOM     37  O   UNL     1      11.115  20.816  44.503  0.00  0.00    +0.000 OA
ATOM     38  H   UNL     1      10.759  20.466  45.344  0.00  0.00    +0.000 HD
ENDBRANCH  11  37
TORSDOF 10
ENDMDL
