MODEL 1
REMARK VINA RESULT:    -5.001      0.000      0.000
REMARK INTER + INTRA:          -6.037
REMARK INTER:                  -5.879
REMARK INTRA:                  -0.158
REMARK UNBOUND:                -0.158
REMARK  Name = opt35.pdb
REMARK  4 active torsions:
REMARK  status: ('A' for Active; 'I' for Inactive)
REMARK    1  A    between atoms: C_2  and  C_4
REMARK    2  A    between atoms: C_4  and  C_5
REMARK    3  A    between atoms: C_8  and  O_10
REMARK    4  A    between atoms: C_11  and  O_12
REMARK                            x       y       z     vdW  Elec       q    Type
REMARK                         _______ _______ _______ _____ _____    ______ ____
ROOT
ATOM      1  C   UNL     1      12.390  13.108  43.283  0.00  0.00    +0.000 A 
ATOM      2  C   UNL     1      13.104  11.920  43.458  0.00  0.00    +0.000 A 
ATOM      3  C   UNL     1      12.850  14.283  43.884  0.00  0.00    +0.000 A 
ATOM      4  C   UNL     1      14.263  11.906  44.233  0.00  0.00    +0.000 A 
ATOM      5  C   UNL     1      14.009  14.269  44.661  0.00  0.00    +0.000 A 
ATOM      6  C   UNL     1      14.709  13.079  44.837  0.00  0.00    +0.000 A 
ENDROOT
BRANCH   4   7
ATOM      7  O   UNL     1      14.967  10.749  44.418  0.00  0.00    +0.000 OA
ATOM      8  H   UNL     1      15.541  10.621  43.643  0.00  0.00    +0.000 HD
ENDBRANCH   4   7
BRANCH   6   9
ATOM      9  O   UNL     1      15.839  13.029  45.596  0.00  0.00    +0.000 OA
ATOM     10  H   UNL     1      15.756  13.787  46.213  0.00  0.00    +0.000 HD
ENDBRANCH   6   9
BRANCH   1  11
ATOM     11  C   UNL     1      11.113  13.114  42.453  0.00  0.00    +0.000 C 
BRANCH  11  13
ATOM     12  O   UNL     1       9.503  11.464  42.837  0.00  0.00    +0.000 OA
ATOM     13  C   UNL     1       9.945  12.530  43.217  0.00  0.00    +0.000 C 
ATOM     14  O   UNL     1       9.482  13.192  44.122  0.00  0.00    +0.000 OA
ENDBRANCH  11  13
ENDBRANCH   1  11
TORSDOF 4
ENDMDL
MODEL 2
REMARK VINA RESULT:    -4.950      1.110      1.215
REMARK INTER + INTRA:          -5.976
REMARK INTER:                  -5.824
REMARK INTRA:                  -0.152
REMARK UNBOUND:                -0.158
REMARK  Name = opt35.pdb
REMARK  4 active torsions:
REMARK  status: ('A' for Active; 'I' for Inactive)
REMARK    1  A    between atoms: C_2  and  C_4
REMARK    2  A    between atoms: C_4  and  C_5
REMARK    3  A    between atoms: C_8  and  O_10
REMARK    4  A    between atoms: C_11  and  O_12
REMARK                            x       y       z     vdW  Elec       q    Type
REMARK                         _______ _______ _______ _____ _____    ______ ____
ROOT
ATOM      1  C   UNL     1      12.233  13.348  43.973  0.00  0.00    +0.000 A 
ATOM      2  C   UNL     1      12.926  12.135  43.960  0.00  0.00    +0.000 A 
ATOM      3  C   UNL     1      12.873  14.502  44.432  0.00  0.00    +0.000 A 
ATOM      4  C   UNL     1      14.245  12.076  44.411  0.00  0.00    +0.000 A 
ATOM      5  C   UNL     1      14.191  14.444  44.884  0.00  0.00    +0.000 A 
ATOM      6  C   UNL     1      14.871  13.229  44.876  0.00  0.00    +0.000 A 
ENDROOT
BRANCH   4   7
ATOM      7  O   UNL     1      14.932  10.895  44.410  0.00  0.00    +0.000 OA
ATOM      8  H   UNL     1      14.932  10.548  45.319  0.00  0.00    +0.000 HD
ENDBRANCH   4   7
BRANCH   6   9
ATOM      9  O   UNL     1      16.156  13.136  45.319  0.00  0.00    +0.000 OA
ATOM     10  H   UNL     1      16.432  12.224  45.086  0.00  0.00    +0.000 HD
ENDBRANCH   6   9
BRANCH   1  11
ATOM     11  C   UNL     1      10.786  13.402  43.499  0.00  0.00    +0.000 C 
BRANCH  11  13
ATOM     12  O   UNL     1      10.155  11.831  41.888  0.00  0.00    +0.000 OA
ATOM     13  C   UNL     1      10.645  12.928  42.069  0.00  0.00    +0.000 C 
ATOM     14  O   UNL     1      11.087  13.646  41.196  0.00  0.00    +0.000 OA
ENDBRANCH  11  13
ENDBRANCH   1  11
TORSDOF 4
ENDMDL
MODEL 3
REMARK VINA RESULT:    -4.873      1.708      1.941
REMARK INTER + INTRA:          -5.886
REMARK INTER:                  -5.746
REMARK INTRA:                  -0.140
REMARK UNBOUND:                -0.158
REMARK  Name = opt35.pdb
REMARK  4 active torsions:
REMARK  status: ('A' for Active; 'I' for Inactive)
REMARK    1  A    between atoms: C_2  and  C_4
REMARK    2  A    between atoms: C_4  and  C_5
REMARK    3  A    between atoms: C_8  and  O_10
REMARK    4  A    between atoms: C_11  and  O_12
REMARK                            x       y       z     vdW  Elec       q    Type
REMARK                         _______ _______ _______ _____ _____    ______ ____
ROOT
ATOM      1  C   UNL     1      12.728  13.219  43.111  0.00  0.00    +0.000 A 
ATOM      2  C   UNL     1      14.024  13.241  42.588  0.00  0.00    +0.000 A 
ATOM      3  C   UNL     1      12.544  13.267  44.496  0.00  0.00    +0.000 A 
ATOM      4  C   UNL     1      15.124  13.302  43.442  0.00  0.00    +0.000 A 
ATOM      5  C   UNL     1      13.645  13.327  45.351  0.00  0.00    +0.000 A 
ATOM      6  C   UNL     1      14.932  13.339  44.821  0.00  0.00    +0.000 A 
ENDROOT
BRANCH   4   7
ATOM      7  O   UNL     1      16.397  13.316  42.944  0.00  0.00    +0.000 OA
ATOM      8  H   UNL     1      16.854  12.521  43.267  0.00  0.00    +0.000 HD
ENDBRANCH   4   7
BRANCH   6   9
ATOM      9  O   UNL     1      16.028  13.388  45.628  0.00  0.00    +0.000 OA
ATOM     10  H   UNL     1      16.122  12.475  45.972  0.00  0.00    +0.000 HD
ENDBRANCH   6   9
BRANCH   1  11
ATOM     11  C   UNL     1      11.531  13.131  42.175  0.00  0.00    +0.000 C 
BRANCH  11  13
ATOM     12  O   UNL     1      11.357  11.520  40.491  0.00  0.00    +0.000 OA
ATOM     13  C   UNL     1      11.302  11.717  41.688  0.00  0.00    +0.000 C 
ATOM     14  O   UNL     1      11.016  10.879  42.519  0.00  0.00    +0.000 OA
ENDBRANCH  11  13
ENDBRANCH   1  11
TORSDOF 4
ENDMDL
MODEL 4
REMARK VINA RESULT:    -4.850      2.106      5.080
REMARK INTER + INTRA:          -5.858
REMARK INTER:                  -5.731
REMARK INTRA:                  -0.127
REMARK UNBOUND:                -0.158
REMARK  Name = opt35.pdb
REMARK  4 active torsions:
REMARK  status: ('A' for Active; 'I' for Inactive)
REMARK    1  A    between atoms: C_2  and  C_4
REMARK    2  A    between atoms: C_4  and  C_5
REMARK    3  A    between atoms: C_8  and  O_10
REMARK    4  A    between atoms: C_11  and  O_12
REMARK                            x       y       z     vdW  Elec       q    Type
REMARK                         _______ _______ _______ _____ _____    ______ ____
ROOT
ATOM      1  C   UNL     1      15.233  13.936  44.313  0.00  0.00    +0.000 A 
ATOM      2  C   UNL     1      15.422  12.575  44.562  0.00  0.00    +0.000 A 
ATOM      3  C   UNL     1      13.997  14.384  43.837  0.00  0.00    +0.000 A 
ATOM      4  C   UNL     1      14.387  11.669  44.330  0.00  0.00    +0.000 A 
ATOM      5  C   UNL     1      12.962  13.478  43.604  0.00  0.00    +0.000 A 
ATOM      6  C   UNL     1      13.163  12.122  43.848  0.00  0.00    +0.000 A 
ENDROOT
BRANCH   4   7
ATOM      7  O   UNL     1      14.562  10.333  44.564  0.00  0.00    +0.000 OA
ATOM      8  H   UNL     1      13.789   9.864  44.206  0.00  0.00    +0.000 HD
ENDBRANCH   4   7
BRANCH   6   9
ATOM      9  O   UNL     1      12.177  11.211  43.622  0.00  0.00    +0.000 OA
ATOM     10  H   UNL     1      11.422  11.740  43.288  0.00  0.00    +0.000 HD
ENDBRANCH   6   9
BRANCH   1  11
ATOM     11  C   UNL     1      16.373  14.918  44.547  0.00  0.00    +0.000 C 
BRANCH  11  13
ATOM     12  O   UNL     1      18.631  14.319  44.592  0.00  0.00    +0.000 OA
ATOM     13  C   UNL     1      17.654  14.460  43.885  0.00  0.00    +0.000 C 
ATOM     14  O   UNL     1      17.641  14.322  42.679  0.00  0.00    +0.000 OA
ENDBRANCH  11  13
ENDBRANCH   1  11
TORSDOF 4
ENDMDL
MODEL 5
REMARK VINA RESULT:    -4.746      1.252      2.218
REMARK INTER + INTRA:          -5.737
REMARK INTER:                  -5.597
REMARK INTRA:                  -0.140
REMARK UNBOUND:                -0.158
REMARK  Name = opt35.pdb
REMARK  4 active torsions:
REMARK  status: ('A' for Active; 'I' for Inactive)
REMARK    1  A    between atoms: C_2  and  C_4
REMARK    2  A    between atoms: C_4  and  C_5
REMARK    3  A    between atoms: C_8  and  O_10
REMARK    4  A    between atoms: C_11  and  O_12
REMARK                            x       y       z     vdW  Elec       q    Type
REMARK                         _______ _______ _______ _____ _____    ______ ____
ROOT
ATOM      1  C   UNL     1      11.715  13.592  43.963  0.00  0.00    +0.000 A 
ATOM      2  C   UNL     1      12.818  13.884  44.770  0.00  0.00    +0.000 A 
ATOM      3  C   UNL     1      11.656  12.367  43.295  0.00  0.00    +0.000 A 
ATOM      4  C   UNL     1      13.855  12.961  44.900  0.00  0.00    +0.000 A 
ATOM      5  C   UNL     1      12.694  11.443  43.423  0.00  0.00    +0.000 A 
ATOM      6  C   UNL     1      13.793  11.747  44.222  0.00  0.00    +0.000 A 
ENDROOT
BRANCH   4   7
ATOM      7  O   UNL     1      14.943  13.237  45.680  0.00  0.00    +0.000 OA
ATOM      8  H   UNL     1      14.622  13.587  46.529  0.00  0.00    +0.000 HD
ENDBRANCH   4   7
BRANCH   6   9
ATOM      9  O   UNL     1      14.828  10.872  44.362  0.00  0.00    +0.000 OA
ATOM     10  H   UNL     1      15.526  11.386  44.820  0.00  0.00    +0.000 HD
ENDBRANCH   6   9
BRANCH   1  11
ATOM     11  C   UNL     1      10.595  14.612  43.808  0.00  0.00    +0.000 C 
BRANCH  11  13
ATOM     12  O   UNL     1       8.537  13.955  42.916  0.00  0.00    +0.000 OA
ATOM     13  C   UNL     1       9.230  13.967  43.914  0.00  0.00    +0.000 C 
ATOM     14  O   UNL     1       8.888  13.557  45.003  0.00  0.00    +0.000 OA
ENDBRANCH  11  13
ENDBRANCH   1  11
TORSDOF 4
ENDMDL
MODEL 6
REMARK VINA RESULT:    -4.699      1.851      2.589
REMARK INTER + INTRA:          -5.681
REMARK INTER:                  -5.510
REMARK INTRA:                  -0.171
REMARK UNBOUND:                -0.158
REMARK  Name = opt35.pdb
REMARK  4 active torsions:
REMARK  status: ('A' for Active; 'I' for Inactive)
REMARK    1  A    between atoms: C_2  and  C_4
REMARK    2  A    between atoms: C_4  and  C_5
REMARK    3  A    between atoms: C_8  and  O_10
REMARK    4  A    between atoms: C_11  and  O_12
REMARK                            x       y       z     vdW  Elec       q    Type
REMARK                         _______ _______ _______ _____ _____    ______ ____
ROOT
ATOM      1  C   UNL     1      13.821  13.675  44.169  0.00  0.00    +0.000 A 
ATOM      2  C   UNL     1      14.582  13.526  45.331  0.00  0.00    +0.000 A 
ATOM      3  C   UNL     1      14.459  13.989  42.965  0.00  0.00    +0.000 A 
ATOM      4  C   UNL     1      15.965  13.697  45.292  0.00  0.00    +0.000 A 
ATOM      5  C   UNL     1      15.843  14.161  42.925  0.00  0.00    +0.000 A 
ATOM      6  C   UNL     1      16.591  14.019  44.091  0.00  0.00    +0.000 A 
ENDROOT
BRANCH   4   7
ATOM      7  O   UNL     1      16.719  13.560  46.424  0.00  0.00    +0.000 OA
ATOM      8  H   UNL     1      16.134  13.686  47.190  0.00  0.00    +0.000 HD
ENDBRANCH   4   7
BRANCH   6   9
ATOM      9  O   UNL     1      17.942  14.189  44.088  0.00  0.00    +0.000 OA
ATOM     10  H   UNL     1      18.135  14.618  43.228  0.00  0.00    +0.000 HD
ENDBRANCH   6   9
BRANCH   1  11
ATOM     11  C   UNL     1      12.309  13.508  44.221  0.00  0.00    +0.000 C 
BRANCH  11  13
ATOM     12  O   UNL     1      11.054  12.661  42.442  0.00  0.00    +0.000 OA
ATOM     13  C   UNL     1      11.837  12.382  43.328  0.00  0.00    +0.000 C 
ATOM     14  O   UNL     1      12.221  11.262  43.590  0.00  0.00    +0.000 OA
ENDBRANCH  11  13
ENDBRANCH   1  11
TORSDOF 4
ENDMDL
MODEL 7
REMARK VINA RESULT:    -4.672      2.381      3.395
REMARK INTER + INTRA:          -5.650
REMARK INTER:                  -5.483
REMARK INTRA:                  -0.167
REMARK UNBOUND:                -0.158
REMARK  Name = opt35.pdb
REMARK  4 active torsions:
REMARK  status: ('A' for Active; 'I' for Inactive)
REMARK    1  A    between atoms: C_2  and  C_4
REMARK    2  A    between atoms: C_4  and  C_5
REMARK    3  A    between atoms: C_8  and  O_10
REMARK    4  A    between atoms: C_11  and  O_12
REMARK                            x       y       z     vdW  Elec       q    Type
REMARK                         _______ _______ _______ _____ _____    ______ ____
ROOT
ATOM      1  C   UNL     1      13.572  14.512  44.182  0.00  0.00    +0.000 A 
ATOM      2  C   UNL     1      12.711  13.453  43.883  0.00  0.00    +0.000 A 
ATOM      3  C   UNL     1      14.886  14.241  44.573  0.00  0.00    +0.000 A 
ATOM      4  C   UNL     1      13.158  12.136  43.983  0.00  0.00    +0.000 A 
ATOM      5  C   UNL     1      15.334  12.924  44.675  0.00  0.00    +0.000 A 
ATOM      6  C   UNL     1      14.466  11.875  44.383  0.00  0.00    +0.000 A 
ENDROOT
BRANCH   4   7
ATOM      7  O   UNL     1      12.324  11.091  43.701  0.00  0.00    +0.000 OA
ATOM      8  H   UNL     1      11.411  11.386  43.859  0.00  0.00    +0.000 HD
ENDBRANCH   4   7
BRANCH   6   9
ATOM      9  O   UNL     1      14.868  10.578  44.481  0.00  0.00    +0.000 OA
ATOM     10  H   UNL     1      15.789  10.628  44.813  0.00  0.00    +0.000 HD
ENDBRANCH   6   9
BRANCH   1  11
ATOM     11  C   UNL     1      13.073  15.948  44.092  0.00  0.00    +0.000 C 
BRANCH  11  13
ATOM     12  O   UNL     1      11.739  16.619  42.295  0.00  0.00    +0.000 OA
ATOM     13  C   UNL     1      12.874  16.384  42.657  0.00  0.00    +0.000 C 
ATOM     14  O   UNL     1      13.854  16.412  41.940  0.00  0.00    +0.000 OA
ENDBRANCH  11  13
ENDBRANCH   1  11
TORSDOF 4
ENDMDL
MODEL 8
REMARK VINA RESULT:    -4.633      2.604      4.042
REMARK INTER + INTRA:          -5.604
REMARK INTER:                  -5.439
REMARK INTRA:                  -0.164
REMARK UNBOUND:                -0.158
REMARK  Name = opt35.pdb
REMARK  4 active torsions:
REMARK  status: ('A' for Active; 'I' for Inactive)
REMARK    1  A    between atoms: C_2  and  C_4
REMARK    2  A    between atoms: C_4  and  C_5
REMARK    3  A    between atoms: C_8  and  O_10
REMARK    4  A    between atoms: C_11  and  O_12
REMARK                            x       y       z     vdW  Elec       q    Type
REMARK                         _______ _______ _______ _____ _____    ______ ____
ROOT
ATOM      1  C   UNL     1      13.866  14.595  44.086  0.00  0.00    +0.000 A 
ATOM      2  C   UNL     1      12.914  13.611  43.806  0.00  0.00    +0.000 A 
ATOM      3  C   UNL     1      15.144  14.217  44.504  0.00  0.00    +0.000 A 
ATOM      4  C   UNL     1      13.236  12.262  43.951  0.00  0.00    +0.000 A 
ATOM      5  C   UNL     1      15.467  12.867  44.651  0.00  0.00    +0.000 A 
ATOM      6  C   UNL     1      14.509  11.894  44.378  0.00  0.00    +0.000 A 
ENDROOT
BRANCH   4   7
ATOM      7  O   UNL     1      12.312  11.290  43.687  0.00  0.00    +0.000 OA
ATOM      8  H   UNL     1      11.975  10.959  44.537  0.00  0.00    +0.000 HD
ENDBRANCH   4   7
BRANCH   6   9
ATOM      9  O   UNL     1      14.788  10.569  44.519  0.00  0.00    +0.000 OA
ATOM     10  H   UNL     1      15.656  10.451  44.079  0.00  0.00    +0.000 HD
ENDBRANCH   6   9
BRANCH   1  11
ATOM     11  C   UNL     1      13.502  16.067  43.946  0.00  0.00    +0.000 C 
BRANCH  11  13
ATOM     12  O   UNL     1      15.163  17.518  43.173  0.00  0.00    +0.000 OA
ATOM     13  C   UNL     1      14.292  16.738  42.843  0.00  0.00    +0.000 C 
ATOM     14  O   UNL     1      13.965  16.502  41.699  0.00  0.00    +0.000 OA
ENDBRANCH  11  13
ENDBRANCH   1  11
TORSDOF 4
ENDMDL
MODEL 9
REMARK VINA RESULT:    -4.625      2.193      3.389
REMARK INTER + INTRA:          -5.594
REMARK INTER:                  -5.455
REMARK INTRA:                  -0.140
REMARK UNBOUND:                -0.158
REMARK  Name = opt35.pdb
REMARK  4 active torsions:
REMARK  status: ('A' for Active; 'I' for Inactive)
REMARK    1  A    between atoms: C_2  and  C_4
REMARK    2  A    between atoms: C_4  and  C_5
REMARK    3  A    between atoms: C_8  and  O_10
REMARK    4  A    between atoms: C_11  and  O_12
REMARK                            x       y       z     vdW  Elec       q    Type
REMARK                         _______ _______ _______ _____ _____    ______ ____
ROOT
ATOM      1  C   UNL     1      13.735  14.420  43.707  0.00  0.00    +0.000 A 
ATOM      2  C   UNL     1      12.820  13.380  43.524  0.00  0.00    +0.000 A 
ATOM      3  C   UNL     1      15.019  14.132  44.178  0.00  0.00    +0.000 A 
ATOM      4  C   UNL     1      13.183  12.066  43.817  0.00  0.00    +0.000 A 
ATOM      5  C   UNL     1      15.383  12.818  44.472  0.00  0.00    +0.000 A 
ATOM      6  C   UNL     1      14.462  11.789  44.295  0.00  0.00    +0.000 A 
ENDROOT
BRANCH   4   7
ATOM      7  O   UNL     1      12.295  11.041  43.649  0.00  0.00    +0.000 OA
ATOM      8  H   UNL     1      12.171  10.609  44.512  0.00  0.00    +0.000 HD
ENDBRANCH   4   7
BRANCH   6   9
ATOM      9  O   UNL     1      14.781  10.497  44.581  0.00  0.00    +0.000 OA
ATOM     10  H   UNL     1      15.756  10.502  44.689  0.00  0.00    +0.000 HD
ENDBRANCH   6   9
BRANCH   1  11
ATOM     11  C   UNL     1      13.326  15.856  43.406  0.00  0.00    +0.000 C 
BRANCH  11  13
ATOM     12  O   UNL     1      11.487  16.383  44.747  0.00  0.00    +0.000 OA
ATOM     13  C   UNL     1      12.685  16.520  44.605  0.00  0.00    +0.000 C 
ATOM     14  O   UNL     1      13.398  17.199  45.315  0.00  0.00    +0.000 OA
ENDBRANCH  11  13
ENDBRANCH   1  11
TORSDOF 4
ENDMDL
MODEL 10
REMARK VINA RESULT:    -4.617      1.704      4.863
REMARK INTER + INTRA:          -5.585
REMARK INTER:                  -5.424
REMARK INTRA:                  -0.161
REMARK UNBOUND:                -0.158
REMARK  Name = opt35.pdb
REMARK  4 active torsions:
REMARK  status: ('A' for Active; 'I' for Inactive)
REMARK    1  A    between atoms: C_2  and  C_4
REMARK    2  A    between atoms: C_4  and  C_5
REMARK    3  A    between atoms: C_8  and  O_10
REMARK    4  A    between atoms: C_11  and  O_12
REMARK                            x       y       z     vdW  Elec       q    Type
REMARK                         _______ _______ _______ _____ _____    ______ ____
ROOT
ATOM      1  C   UNL     1      14.715  13.820  44.218  0.00  0.00    +0.000 A 
ATOM      2  C   UNL     1      14.170  12.590  43.841  0.00  0.00    +0.000 A 
ATOM      3  C   UNL     1      13.867  14.847  44.642  0.00  0.00    +0.000 A 
ATOM      4  C   UNL     1      12.790  12.392  43.880  0.00  0.00    +0.000 A 
ATOM      5  C   UNL     1      12.486  14.651  44.680  0.00  0.00    +0.000 A 
ATOM      6  C   UNL     1      11.952  13.424  44.294  0.00  0.00    +0.000 A 
ENDROOT
BRANCH   4   7
ATOM      7  O   UNL     1      12.244  11.195  43.508  0.00  0.00    +0.000 OA
ATOM      8  H   UNL     1      12.909  10.711  42.989  0.00  0.00    +0.000 HD
ENDBRANCH   4   7
BRANCH   6   9
ATOM      9  O   UNL     1      10.609  13.202  44.311  0.00  0.00    +0.000 OA
ATOM     10  H   UNL     1      10.219  14.013  43.922  0.00  0.00    +0.000 HD
ENDBRANCH   6   9
BRANCH   1  11
ATOM     11  C   UNL     1      16.220  14.037  44.153  0.00  0.00    +0.000 C 
BRANCH  11  13
ATOM     12  O   UNL     1      16.751  13.707  46.405  0.00  0.00    +0.000 OA
ATOM     13  C   UNL     1      16.779  14.497  45.482  0.00  0.00    +0.000 C 
ATOM     14  O   UNL     1      17.163  15.645  45.560  0.00  0.00    +0.000 OA
ENDBRANCH  11  13
ENDBRANCH   1  11
TORSDOF 4
ENDMDL
MODEL 11
REMARK VINA RESULT:    -4.601      1.882      5.171
REMARK INTER + INTRA:          -5.566
REMARK INTER:                  -5.393
REMARK INTRA:                  -0.173
REMARK UNBOUND:                -0.158
REMARK  Name = opt35.pdb
REMARK  4 active torsions:
REMARK  status: ('A' for Active; 'I' for Inactive)
REMARK    1  A    between atoms: C_2  and  C_4
REMARK    2  A    between atoms: C_4  and  C_5
REMARK    3  A    between atoms: C_8  and  O_10
REMARK    4  A    between atoms: C_11  and  O_12
REMARK                            x       y       z     vdW  Elec       q    Type
REMARK                         _______ _______ _______ _____ _____    ______ ____
ROOT
ATOM      1  C   UNL     1      14.772  14.203  44.279  0.00  0.00    +0.000 A 
ATOM      2  C   UNL     1      13.456  14.273  44.742  0.00  0.00    +0.000 A 
ATOM      3  C   UNL     1      15.107  13.266  43.297  0.00  0.00    +0.000 A 
ATOM      4  C   UNL     1      12.486  13.409  44.234  0.00  0.00    +0.000 A 
ATOM      5  C   UNL     1      14.138  12.400  42.789  0.00  0.00    +0.000 A 
ATOM      6  C   UNL     1      12.831  12.472  43.263  0.00  0.00    +0.000 A 
ENDROOT
BRANCH   4   7
ATOM      7  O   UNL     1      11.196  13.462  44.684  0.00  0.00    +0.000 OA
ATOM      8  H   UNL     1      10.670  12.837  44.157  0.00  0.00    +0.000 HD
ENDBRANCH   4   7
BRANCH   6   9
ATOM      9  O   UNL     1      11.863  11.636  42.795  0.00  0.00    +0.000 OA
ATOM     10  H   UNL     1      12.341  10.812  42.560  0.00  0.00    +0.000 HD
ENDBRANCH   6   9
BRANCH   1  11
ATOM     11  C   UNL     1      15.831  15.134  44.852  0.00  0.00    +0.000 C 
BRANCH  11  13
ATOM     12  O   UNL     1      18.038  14.397  45.074  0.00  0.00    +0.000 OA
ATOM     13  C   UNL     1      16.926  14.369  45.563  0.00  0.00    +0.000 C 
ATOM     14  O   UNL     1      16.612  13.724  46.542  0.00  0.00    +0.000 OA
ENDBRANCH  11  13
ENDBRANCH   1  11
TORSDOF 4
ENDMDL
MODEL 12
REMARK VINA RESULT:    -4.544      2.683      4.066
REMARK INTER + INTRA:          -5.499
REMARK INTER:                  -5.343
REMARK INTRA:                  -0.157
REMARK UNBOUND:                -0.158
REMARK  Name = opt35.pdb
REMARK  4 active torsions:
REMARK  status: ('A' for Active; 'I' for Inactive)
REMARK    1  A    between atoms: C_2  and  C_4
REMARK    2  A    between atoms: C_4  and  C_5
REMARK    3  A    between atoms: C_8  and  O_10
REMARK    4  A    between atoms: C_11  and  O_12
REMARK                            x       y       z     vdW  Elec       q    Type
REMARK                         _______ _______ _______ _____ _____    ______ ____
ROOT
ATOM      1  C   UNL     1      15.293  13.490  44.142  0.00  0.00    +0.000 A 
ATOM      2  C   UNL     1      16.414  13.802  44.915  0.00  0.00    +0.000 A 
ATOM      3  C   UNL     1      15.346  13.654  42.755  0.00  0.00    +0.000 A 
ATOM      4  C   UNL     1      17.574  14.280  44.307  0.00  0.00    +0.000 A 
ATOM      5  C   UNL     1      16.506  14.133  42.146  0.00  0.00    +0.000 A 
ATOM      6  C   UNL     1      17.615  14.450  42.926  0.00  0.00    +0.000 A 
ENDROOT
BRANCH   4   7
ATOM      7  O   UNL     1      18.676  14.596  45.053  0.00  0.00    +0.000 OA
ATOM      8  H   UNL     1      18.557  14.214  45.939  0.00  0.00    +0.000 HD
ENDBRANCH   4   7
BRANCH   6   9
ATOM      9  O   UNL     1      18.760  14.928  42.364  0.00  0.00    +0.000 OA
ATOM     10  H   UNL     1      18.651  15.903  42.374  0.00  0.00    +0.000 HD
ENDBRANCH   6   9
BRANCH   1  11
ATOM     11  C   UNL     1      14.022  12.988  44.813  0.00  0.00    +0.000 C 
BRANCH  11  13
ATOM     12  O   UNL     1      14.472  10.730  44.415  0.00  0.00    +0.000 OA
ATOM     13  C   UNL     1      13.637  11.608  44.327  0.00  0.00    +0.000 C 
ATOM     14  O   UNL     1      12.541  11.478  43.822  0.00  0.00    +0.000 OA
ENDBRANCH  11  13
ENDBRANCH   1  11
TORSDOF 4
ENDMDL
MODEL 13
REMARK VINA RESULT:    -4.455      2.251      4.684
REMARK INTER + INTRA:          -5.395
REMARK INTER:                  -5.248
REMARK INTRA:                  -0.147
REMARK UNBOUND:                -0.158
REMARK  Name = opt35.pdb
REMARK  4 active torsions:
REMARK  status: ('A' for Active; 'I' for Inactive)
REMARK    1  A    between atoms: C_2  and  C_4
REMARK    2  A    between atoms: C_4  and  C_5
REMARK    3  A    between atoms: C_8  and  O_10
REMARK    4  A    between atoms: C_11  and  O_12
REMARK                            x       y       z     vdW  Elec       q    Type
REMARK                         _______ _______ _______ _____ _____    ______ ____
ROOT
ATOM      1  C   UNL     1      14.651  13.970  43.808  0.00  0.00    +0.000 A 
ATOM      2  C   UNL     1      15.001  12.705  44.288  0.00  0.00    +0.000 A 
ATOM      3  C   UNL     1      13.414  14.151  43.184  0.00  0.00    +0.000 A 
ATOM      4  C   UNL     1      14.126  11.631  44.138  0.00  0.00    +0.000 A 
ATOM      5  C   UNL     1      12.538  13.076  43.032  0.00  0.00    +0.000 A 
ATOM      6  C   UNL     1      12.899  11.818  43.506  0.00  0.00    +0.000 A 
ENDROOT
BRANCH   4   7
ATOM      7  O   UNL     1      14.459  10.387  44.596  0.00  0.00    +0.000 OA
ATOM      8  H   UNL     1      14.728   9.848  43.832  0.00  0.00    +0.000 HD
ENDBRANCH   4   7
BRANCH   6   9
ATOM      9  O   UNL     1      12.071  10.746  43.366  0.00  0.00    +0.000 OA
ATOM     10  H   UNL     1      12.207  10.448  42.441  0.00  0.00    +0.000 HD
ENDBRANCH   6   9
BRANCH   1  11
ATOM     11  C   UNL     1      15.620  15.135  43.956  0.00  0.00    +0.000 C 
BRANCH  11  13
ATOM     12  O   UNL     1      17.669  14.637  42.948  0.00  0.00    +0.000 OA
ATOM     13  C   UNL     1      16.601  15.199  42.806  0.00  0.00    +0.000 C 
ATOM     14  O   UNL     1      16.285  15.859  41.838  0.00  0.00    +0.000 OA
ENDBRANCH  11  13
ENDBRANCH   1  11
TORSDOF 4
ENDMDL
MODEL 14
REMARK VINA RESULT:    -4.422      2.100      5.119
REMARK INTER + INTRA:          -5.356
REMARK INTER:                  -5.230
REMARK INTRA:                  -0.127
REMARK UNBOUND:                -0.158
REMARK  Name = opt35.pdb
REMARK  4 active torsions:
REMARK  status: ('A' for Active; 'I' for Inactive)
REMARK    1  A    between atoms: C_2  and  C_4
REMARK    2  A    between atoms: C_4  and  C_5
REMARK    3  A    between atoms: C_8  and  O_10
REMARK    4  A    between atoms: C_11  and  O_12
REMARK                            x       y       z     vdW  Elec       q    Type
REMARK                         _______ _______ _______ _____ _____    ______ ____
ROOT
ATOM      1  C   UNL     1      15.188  14.396  44.805  0.00  0.00    +0.000 A 
ATOM      2  C   UNL     1      14.972  13.020  44.919  0.00  0.00    +0.000 A 
ATOM      3  C   UNL     1      14.137  15.227  44.410  0.00  0.00    +0.000 A 
ATOM      4  C   UNL     1      13.718  12.481  44.632  0.00  0.00    +0.000 A 
ATOM      5  C   UNL     1      12.883  14.689  44.122  0.00  0.00    +0.000 A 
ATOM      6  C   UNL     1      12.679  13.315  44.230  0.00  0.00    +0.000 A 
ENDROOT
BRANCH   4   7
ATOM      7  O   UNL     1      13.496  11.136  44.733  0.00  0.00    +0.000 OA
ATOM      8  H   UNL     1      13.153  10.825  43.878  0.00  0.00    +0.000 HD
ENDBRANCH   4   7
BRANCH   6   9
ATOM      9  O   UNL     1      11.470  12.756  43.948  0.00  0.00    +0.000 OA
ATOM     10  H   UNL     1      11.139  12.434  44.813  0.00  0.00    +0.000 HD
ENDBRANCH   6   9
BRANCH   1  11
ATOM     11  C   UNL     1      16.565  14.977  45.098  0.00  0.00    +0.000 C 
BRANCH  11  13
ATOM     12  O   UNL     1      18.686  14.317  44.371  0.00  0.00    +0.000 OA
ATOM     13  C   UNL     1      17.565  14.625  44.018  0.00  0.00    +0.000 C 
ATOM     14  O   UNL     1      17.202  14.732  42.865  0.00  0.00    +0.000 OA
ENDBRANCH  11  13
ENDBRANCH   1  11
TORSDOF 4
ENDMDL
MODEL 15
REMARK VINA RESULT:    -4.400      2.454      3.379
REMARK INTER + INTRA:          -5.330
REMARK INTER:                  -5.164
REMARK INTRA:                  -0.166
REMARK UNBOUND:                -0.158
REMARK  Name = opt35.pdb
REMARK  4 active torsions:
REMARK  status: ('A' for Active; 'I' for Inactive)
REMARK    1  A    between atoms: C_2  and  C_4
REMARK    2  A    between atoms: C_4  and  C_5
REMARK    3  A    between atoms: C_8  and  O_10
REMARK    4  A    between atoms: C_11  and  O_12
REMARK                            x       y       z     vdW  Elec       q    Type
REMARK                         _______ _______ _______ _____ _____    ______ ____
ROOT
ATOM      1  C   UNL     1      14.801  13.687  44.318  0.00  0.00    +0.000 A 
ATOM      2  C   UNL     1      15.573  13.769  43.157  0.00  0.00    +0.000 A 
ATOM      3  C   UNL     1      15.420  13.795  45.566  0.00  0.00    +0.000 A 
ATOM      4  C   UNL     1      16.953  13.949  43.243  0.00  0.00    +0.000 A 
ATOM      5  C   UNL     1      16.801  13.974  45.653  0.00  0.00    +0.000 A 
ATOM      6  C   UNL     1      17.564  14.046  44.490  0.00  0.00    +0.000 A 
ENDROOT
BRANCH   4   7
ATOM      7  O   UNL     1      17.721  14.023  42.115  0.00  0.00    +0.000 OA
ATOM      8  H   UNL     1      18.602  14.344  42.373  0.00  0.00    +0.000 HD
ENDBRANCH   4   7
BRANCH   6   9
ATOM      9  O   UNL     1      18.914  14.210  44.541  0.00  0.00    +0.000 OA
ATOM     10  H   UNL     1      19.259  13.650  43.814  0.00  0.00    +0.000 HD
ENDBRANCH   6   9
BRANCH   1  11
ATOM     11  C   UNL     1      13.297  13.469  44.218  0.00  0.00    +0.000 C 
BRANCH  11  13
ATOM     12  O   UNL     1      12.487  12.131  42.481  0.00  0.00    +0.000 OA
ATOM     13  C   UNL     1      12.964  12.129  43.598  0.00  0.00    +0.000 C 
ATOM     14  O   UNL     1      13.136  11.140  44.280  0.00  0.00    +0.000 OA
ENDBRANCH  11  13
ENDBRANCH   1  11
TORSDOF 4
ENDMDL
MODEL 16
REMARK VINA RESULT:    -4.320      1.333      5.049
REMARK INTER + INTRA:          -5.236
REMARK INTER:                  -5.169
REMARK INTRA:                  -0.067
REMARK UNBOUND:                -0.158
REMARK  Name = opt35.pdb
REMARK  4 active torsions:
REMARK  status: ('A' for Active; 'I' for Inactive)
REMARK    1  A    between atoms: C_2  and  C_4
REMARK    2  A    between atoms: C_4  and  C_5
REMARK    3  A    between atoms: C_8  and  O_10
REMARK    4  A    between atoms: C_11  and  O_12
REMARK                            x       y       z     vdW  Elec       q    Type
REMARK                         _______ _______ _______ _____ _____    ______ ____
ROOT
ATOM      1  C   UNL     1      11.878  13.045  43.568  0.00  0.00    +0.000 A 
ATOM      2  C   UNL     1      10.693  13.365  44.235  0.00  0.00    +0.000 A 
ATOM      3  C   UNL     1      11.824  12.582  42.251  0.00  0.00    +0.000 A 
ATOM      4  C   UNL     1       9.464  13.215  43.593  0.00  0.00    +0.000 A 
ATOM      5  C   UNL     1      10.595  12.430  41.608  0.00  0.00    +0.000 A 
ATOM      6  C   UNL     1       9.418  12.744  42.284  0.00  0.00    +0.000 A 
ENDROOT
BRANCH   4   7
ATOM      7  O   UNL     1       8.297  13.518  44.237  0.00  0.00    +0.000 OA
ATOM      8  H   UNL     1       7.673  13.864  43.576  0.00  0.00    +0.000 HD
ENDBRANCH   4   7
BRANCH   6   9
ATOM      9  O   UNL     1       8.202  12.599  41.689  0.00  0.00    +0.000 OA
ATOM     10  H   UNL     1       7.828  13.505  41.667  0.00  0.00    +0.000 HD
ENDBRANCH   6   9
BRANCH   1  11
ATOM     11  C   UNL     1      13.216  13.191  44.281  0.00  0.00    +0.000 C 
BRANCH  11  13
ATOM     12  O   UNL     1      15.170  11.975  43.877  0.00  0.00    +0.000 OA
ATOM     13  C   UNL     1      14.014  11.906  44.244  0.00  0.00    +0.000 C 
ATOM     14  O   UNL     1      13.433  10.878  44.524  0.00  0.00    +0.000 OA
ENDBRANCH  11  13
ENDBRANCH   1  11
TORSDOF 4
ENDMDL
MODEL 17
REMARK VINA RESULT:    -4.154      1.878      4.755
REMARK INTER + INTRA:          -5.041
REMARK INTER:                  -4.898
REMARK INTRA:                  -0.143
REMARK UNBOUND:                -0.158
REMARK  Name = opt35.pdb
REMARK  4 active torsions:
REMARK  status: ('A' for Active; 'I' for Inactive)
REMARK    1  A    between atoms: C_2  and  C_4
REMARK    2  A    between atoms: C_4  and  C_5
REMARK    3  A    between atoms: C_8  and  O_10
REMARK    4  A    between atoms: C_11  and  O_12
REMARK                            x       y       z     vdW  Elec       q    Type
REMARK                         _______ _______ _______ _____ _____    ______ ____
ROOT
ATOM      1  C   UNL     1      12.691  13.066  43.523  0.00  0.00    +0.000 A 
ATOM      2  C   UNL     1      12.591  12.346  42.330  0.00  0.00    +0.000 A 
ATOM      3  C   UNL     1      11.531  13.547  44.136  0.00  0.00    +0.000 A 
ATOM      4  C   UNL     1      11.343  12.116  41.751  0.00  0.00    +0.000 A 
ATOM      5  C   UNL     1      10.282  13.319  43.557  0.00  0.00    +0.000 A 
ATOM      6  C   UNL     1      10.193  12.608  42.364  0.00  0.00    +0.000 A 
ENDROOT
BRANCH   4   7
ATOM      7  O   UNL     1      11.232  11.419  40.581  0.00  0.00    +0.000 OA
ATOM      8  H   UNL     1      10.707  11.955  39.962  0.00  0.00    +0.000 HD
ENDBRANCH   4   7
BRANCH   6   9
ATOM      9  O   UNL     1       8.991  12.375  41.768  0.00  0.00    +0.000 OA
ATOM     10  H   UNL     1       8.453  13.168  41.978  0.00  0.00    +0.000 HD
ENDBRANCH   6   9
BRANCH   1  11
ATOM     11  C   UNL     1      14.058  13.332  44.139  0.00  0.00    +0.000 C 
BRANCH  11  13
ATOM     12  O   UNL     1      16.021  13.184  42.878  0.00  0.00    +0.000 OA
ATOM     13  C   UNL     1      15.041  13.861  43.117  0.00  0.00    +0.000 C 
ATOM     14  O   UNL     1      14.821  14.958  42.646  0.00  0.00    +0.000 OA
ENDBRANCH  11  13
ENDBRANCH   1  11
TORSDOF 4
ENDMDL
MODEL 18
REMARK VINA RESULT:    -3.989      1.822      2.646
REMARK INTER + INTRA:          -4.846
REMARK INTER:                  -4.675
REMARK INTRA:                  -0.172
REMARK UNBOUND:                -0.158
REMARK  Name = opt35.pdb
REMARK  4 active torsions:
REMARK  status: ('A' for Active; 'I' for Inactive)
REMARK    1  A    between atoms: C_2  and  C_4
REMARK    2  A    between atoms: C_4  and  C_5
REMARK    3  A    between atoms: C_8  and  O_10
REMARK    4  A    between atoms: C_11  and  O_12
REMARK                            x       y       z     vdW  Elec       q    Type
REMARK                         _______ _______ _______ _____ _____    ______ ____
ROOT
ATOM      1  C   UNL     1      12.423  13.440  44.102  0.00  0.00    +0.000 A 
ATOM      2  C   UNL     1      12.687  14.799  44.287  0.00  0.00    +0.000 A 
ATOM      3  C   UNL     1      13.434  12.504  44.339  0.00  0.00    +0.000 A 
ATOM      4  C   UNL     1      13.952  15.219  44.696  0.00  0.00    +0.000 A 
ATOM      5  C   UNL     1      14.700  12.924  44.747  0.00  0.00    +0.000 A 
ATOM      6  C   UNL     1      14.956  14.282  44.921  0.00  0.00    +0.000 A 
ENDROOT
BRANCH   4   7
ATOM      7  O   UNL     1      14.224  16.547  44.874  0.00  0.00    +0.000 OA
ATOM      8  H   UNL     1      13.907  17.025  44.089  0.00  0.00    +0.000 HD
ENDBRANCH   4   7
BRANCH   6   9
ATOM      9  O   UNL     1      16.183  14.725  45.310  0.00  0.00    +0.000 OA
ATOM     10  H   UNL     1      16.721  13.911  45.407  0.00  0.00    +0.000 HD
ENDBRANCH   6   9
BRANCH   1  11
ATOM     11  C   UNL     1      11.046  12.988  43.634  0.00  0.00    +0.000 C 
BRANCH  11  13
ATOM     12  O   UNL     1      10.842  11.053  42.340  0.00  0.00    +0.000 OA
ATOM     13  C   UNL     1      11.118  12.236  42.323  0.00  0.00    +0.000 C 
ATOM     14  O   UNL     1      11.506  12.847  41.349  0.00  0.00    +0.000 OA
ENDBRANCH  11  13
ENDBRANCH   1  11
TORSDOF 4
ENDMDL
MODEL 19
REMARK VINA RESULT:    -3.845      2.641      3.648
REMARK INTER + INTRA:          -4.678
REMARK INTER:                  -4.525
REMARK INTRA:                  -0.153
REMARK UNBOUND:                -0.158
REMARK  Name = opt35.pdb
REMARK  4 active torsions:
REMARK  status: ('A' for Active; 'I' for Inactive)
REMARK    1  A    between atoms: C_2  and  C_4
REMARK    2  A    between atoms: C_4  and  C_5
REMARK    3  A    between atoms: C_8  and  O_10
REMARK    4  A    between atoms: C_11  and  O_12
REMARK                            x       y       z     vdW  Elec       q    Type
REMARK                         _______ _______ _______ _____ _____    ______ ____
ROOT
ATOM      1  C   UNL     1      12.626  14.921  43.583  0.00  0.00    +0.000 A 
ATOM      2  C   UNL     1      13.683  14.773  44.486  0.00  0.00    +0.000 A 
ATOM      3  C   UNL     1      11.984  13.785  43.083  0.00  0.00    +0.000 A 
ATOM      4  C   UNL     1      14.098  13.501  44.877  0.00  0.00    +0.000 A 
ATOM      5  C   UNL     1      12.400  12.512  43.473  0.00  0.00    +0.000 A 
ATOM      6  C   UNL     1      13.460  12.374  44.366  0.00  0.00    +0.000 A 
ENDROOT
BRANCH   4   7
ATOM      7  O   UNL     1      15.135  13.343  45.754  0.00  0.00    +0.000 OA
ATOM      8  H   UNL     1      14.761  13.246  46.646  0.00  0.00    +0.000 HD
ENDBRANCH   4   7
BRANCH   6   9
ATOM      9  O   UNL     1      13.896  11.147  44.760  0.00  0.00    +0.000 OA
ATOM     10  H   UNL     1      13.601  11.066  45.692  0.00  0.00    +0.000 HD
ENDBRANCH   6   9
BRANCH   1  11
ATOM     11  C   UNL     1      12.190  16.312  43.143  0.00  0.00    +0.000 C 
BRANCH  11  13
ATOM     12  O   UNL     1      13.881  16.723  41.583  0.00  0.00    +0.000 OA
ATOM     13  C   UNL     1      12.680  16.639  41.749  0.00  0.00    +0.000 C 
ATOM     14  O   UNL     1      11.843  16.857  40.899  0.00  0.00    +0.000 OA
ENDBRANCH  11  13
ENDBRANCH   1  11
TORSDOF 4
ENDMDL
