MODEL 1
REMARK VINA RESULT:    -5.597      0.000      0.000
REMARK INTER + INTRA:          -5.996
REMARK INTER:                  -5.924
REMARK INTRA:                  -0.072
REMARK UNBOUND:                -0.072
REMARK  Name = opt04.pdb
REMARK  1 active torsions:
REMARK  status: ('A' for Active; 'I' for Inactive)
REMARK    1  A    between atoms: C_2  and  CA_4
REMARK                            x       y       z     vdW  Elec       q    Type
REMARK                         _______ _______ _______ _____ _____    ______ ____
ROOT
ATOM      1  CA  UNL     1      14.086  12.804  44.499  0.00  0.00    +0.000 A 
ATOM      2  N   UNL     1      12.988  13.603  44.511  0.00  0.00    +0.000 NA
ATOM      3  C   UNL     1      15.371  13.331  44.664  0.00  0.00    +0.000 A 
ATOM      4  C   UNL     1      13.139  14.936  44.686  0.00  0.00    +0.000 A 
ATOM      5  C   UNL     1      15.533  14.701  44.843  0.00  0.00    +0.000 A 
ATOM      6  C   UNL     1      14.405  15.518  44.855  0.00  0.00    +0.000 A 
ATOM      7  C   UNL     1      12.014  15.762  44.701  0.00  0.00    +0.000 A 
ATOM      8  C   UNL     1      14.535  16.896  45.032  0.00  0.00    +0.000 A 
ATOM      9  C   UNL     1      12.142  17.139  44.879  0.00  0.00    +0.000 A 
ATOM     10  C   UNL     1      13.402  17.706  45.044  0.00  0.00    +0.000 A 
ENDROOT
BRANCH   1  12
ATOM     11  O   UNL     1      14.863  10.591  44.412  0.00  0.00    +0.000 OA
ATOM     12  C   UNL     1      13.898  11.322  44.302  0.00  0.00    +0.000 C 
ATOM     13  OXT UNL     1      12.781  10.915  44.041  0.00  0.00    +0.000 OA
ENDBRANCH   1  12
TORSDOF 1
ENDMDL
MODEL 2
REMARK VINA RESULT:    -5.485      2.750      3.868
REMARK INTER + INTRA:          -5.878
REMARK INTER:                  -5.812
REMARK INTRA:                  -0.066
REMARK UNBOUND:                -0.072
REMARK  Name = opt04.pdb
REMARK  1 active torsions:
REMARK  status: ('A' for Active; 'I' for Inactive)
REMARK    1  A    between atoms: C_2  and  CA_4
REMARK                            x       y       z     vdW  Elec       q    Type
REMARK                         _______ _______ _______ _____ _____    ______ ____
ROOT
ATOM      1  CA  UNL     1      13.290  12.584  44.231  0.00  0.00    +0.000 A 
ATOM      2  N   UNL     1      12.270  11.979  43.570  0.00  0.00    +0.000 NA
ATOM      3  C   UNL     1      13.104  13.795  44.905  0.00  0.00    +0.000 A 
ATOM      4  C   UNL     1      11.048  12.560  43.561  0.00  0.00    +0.000 A 
ATOM      5  C   UNL     1      11.850  14.397  44.900  0.00  0.00    +0.000 A 
ATOM      6  C   UNL     1      10.805  13.774  44.220  0.00  0.00    +0.000 A 
ATOM      7  C   UNL     1       9.995  11.942  42.883  0.00  0.00    +0.000 A 
ATOM      8  C   UNL     1       9.536  14.354  44.195  0.00  0.00    +0.000 A 
ATOM      9  C   UNL     1       8.727  12.519  42.859  0.00  0.00    +0.000 A 
ATOM     10  C   UNL     1       8.496  13.725  43.514  0.00  0.00    +0.000 A 
ENDROOT
BRANCH   1  12
ATOM     11  O   UNL     1      15.634  12.617  44.099  0.00  0.00    +0.000 OA
ATOM     12  C   UNL     1      14.644  11.922  44.229  0.00  0.00    +0.000 C 
ATOM     13  OXT UNL     1      14.692  10.713  44.357  0.00  0.00    +0.000 OA
ENDBRANCH   1  12
TORSDOF 1
ENDMDL
MODEL 3
REMARK VINA RESULT:    -5.312      1.076      2.104
REMARK INTER + INTRA:          -5.695
REMARK INTER:                  -5.623
REMARK INTRA:                  -0.072
REMARK UNBOUND:                -0.072
REMARK  Name = opt04.pdb
REMARK  1 active torsions:
REMARK  status: ('A' for Active; 'I' for Inactive)
REMARK    1  A    between atoms: C_2  and  CA_4
REMARK                            x       y       z     vdW  Elec       q    Type
REMARK                         _______ _______ _______ _____ _____    ______ ____
ROOT
ATOM      1  CA  UNL     1      13.493  13.375  44.447  0.00  0.00    +0.000 A 
ATOM      2  N   UNL     1      14.397  14.382  44.554  0.00  0.00    +0.000 NA
ATOM      3  C   UNL     1      12.118  13.626  44.472  0.00  0.00    +0.000 A 
ATOM      4  C   UNL     1      13.960  15.655  44.690  0.00  0.00    +0.000 A 
ATOM      5  C   UNL     1      11.661  14.932  44.613  0.00  0.00    +0.000 A 
ATOM      6  C   UNL     1      12.591  15.964  44.723  0.00  0.00    +0.000 A 
ATOM      7  C   UNL     1      14.885  16.695  44.800  0.00  0.00    +0.000 A 
ATOM      8  C   UNL     1      12.165  17.285  44.866  0.00  0.00    +0.000 A 
ATOM      9  C   UNL     1      14.460  18.015  44.941  0.00  0.00    +0.000 A 
ATOM     10  C   UNL     1      13.100  18.311  44.974  0.00  0.00    +0.000 A 
ENDROOT
BRANCH   1  12
ATOM     11  O   UNL     1      15.196  11.783  44.170  0.00  0.00    +0.000 OA
ATOM     12  C   UNL     1      14.000  11.963  44.297  0.00  0.00    +0.000 C 
ATOM     13  OXT UNL     1      13.188  11.058  44.309  0.00  0.00    +0.000 OA
ENDBRANCH   1  12
TORSDOF 1
ENDMDL
MODEL 4
REMARK VINA RESULT:    -5.298      4.804      5.946
REMARK INTER + INTRA:          -5.680
REMARK INTER:                  -5.608
REMARK INTRA:                  -0.072
REMARK UNBOUND:                -0.072
REMARK  Name = opt04.pdb
REMARK  1 active torsions:
REMARK  status: ('A' for Active; 'I' for Inactive)
REMARK    1  A    between atoms: C_2  and  CA_4
REMARK                            x       y       z     vdW  Elec       q    Type
REMARK                         _______ _______ _______ _____ _____    ______ ____
ROOT
ATOM      1  CA  UNL     1      10.449  12.490  42.439  0.00  0.00    +0.000 A 
ATOM      2  N   UNL     1       9.163  12.157  42.156  0.00  0.00    +0.000 NA
ATOM      3  C   UNL     1      10.774  13.239  43.574  0.00  0.00    +0.000 A 
ATOM      4  C   UNL     1       8.175  12.559  42.989  0.00  0.00    +0.000 A 
ATOM      5  C   UNL     1       9.763  13.656  44.434  0.00  0.00    +0.000 A 
ATOM      6  C   UNL     1       8.444  13.314  44.141  0.00  0.00    +0.000 A 
ATOM      7  C   UNL     1       6.851  12.219  42.704  0.00  0.00    +0.000 A 
ATOM      8  C   UNL     1       7.407  13.718  44.983  0.00  0.00    +0.000 A 
ATOM      9  C   UNL     1       5.815  12.620  43.545  0.00  0.00    +0.000 A 
ATOM     10  C   UNL     1       6.092  13.370  44.684  0.00  0.00    +0.000 A 
ENDROOT
BRANCH   1  12
ATOM     11  O   UNL     1      11.230  11.348  40.543  0.00  0.00    +0.000 OA
ATOM     12  C   UNL     1      11.536  12.033  41.500  0.00  0.00    +0.000 C 
ATOM     13  OXT UNL     1      12.680  12.372  41.739  0.00  0.00    +0.000 OA
ENDBRANCH   1  12
TORSDOF 1
ENDMDL
MODEL 5
REMARK VINA RESULT:    -5.240      2.450      4.114
REMARK INTER + INTRA:          -5.619
REMARK INTER:                  -5.550
REMARK INTRA:                  -0.069
REMARK UNBOUND:                -0.072
REMARK  Name = opt04.pdb
REMARK  1 active torsions:
REMARK  status: ('A' for Active; 'I' for Inactive)
REMARK    1  A    between atoms: C_2  and  CA_4
REMARK                            x       y       z     vdW  Elec       q    Type
REMARK                         _______ _______ _______ _____ _____    ______ ____
ROOT
ATOM      1  CA  UNL     1      10.645  13.266  43.874  0.00  0.00    +0.000 A 
ATOM      2  N   UNL     1      11.721  12.438  43.875  0.00  0.00    +0.000 NA
ATOM      3  C   UNL     1      10.766  14.618  44.210  0.00  0.00    +0.000 A 
ATOM      4  C   UNL     1      12.936  12.929  44.210  0.00  0.00    +0.000 A 
ATOM      5  C   UNL     1      12.013  15.129  44.556  0.00  0.00    +0.000 A 
ATOM      6  C   UNL     1      13.115  14.277  44.557  0.00  0.00    +0.000 A 
ATOM      7  C   UNL     1      14.047  12.083  44.213  0.00  0.00    +0.000 A 
ATOM      8  C   UNL     1      14.379  14.760  44.900  0.00  0.00    +0.000 A 
ATOM      9  C   UNL     1      15.309  12.564  44.553  0.00  0.00    +0.000 A 
ATOM     10  C   UNL     1      15.476  13.902  44.897  0.00  0.00    +0.000 A 
ENDROOT
BRANCH   1  12
ATOM     11  O   UNL     1       8.300  13.203  43.975  0.00  0.00    +0.000 OA
ATOM     12  C   UNL     1       9.299  12.699  43.499  0.00  0.00    +0.000 C 
ATOM     13  OXT UNL     1       9.268  11.756  42.731  0.00  0.00    +0.000 OA
ENDBRANCH   1  12
TORSDOF 1
ENDMDL
MODEL 6
REMARK VINA RESULT:    -5.099      2.771      3.952
REMARK INTER + INTRA:          -5.469
REMARK INTER:                  -5.410
REMARK INTRA:                  -0.059
REMARK UNBOUND:                -0.072
REMARK  Name = opt04.pdb
REMARK  1 active torsions:
REMARK  status: ('A' for Active; 'I' for Inactive)
REMARK    1  A    between atoms: C_2  and  CA_4
REMARK                            x       y       z     vdW  Elec       q    Type
REMARK                         _______ _______ _______ _____ _____    ______ ____
ROOT
ATOM      1  CA  UNL     1      14.803  12.987  44.274  0.00  0.00    +0.000 A 
ATOM      2  N   UNL     1      15.535  13.227  43.156  0.00  0.00    +0.000 NA
ATOM      3  C   UNL     1      15.230  13.424  45.532  0.00  0.00    +0.000 A 
ATOM      4  C   UNL     1      16.703  13.901  43.259  0.00  0.00    +0.000 A 
ATOM      5  C   UNL     1      16.431  14.117  45.645  0.00  0.00    +0.000 A 
ATOM      6  C   UNL     1      17.181  14.361  44.496  0.00  0.00    +0.000 A 
ATOM      7  C   UNL     1      17.460  14.151  42.113  0.00  0.00    +0.000 A 
ATOM      8  C   UNL     1      18.390  15.053  44.577  0.00  0.00    +0.000 A 
ATOM      9  C   UNL     1      18.666  14.843  42.192  0.00  0.00    +0.000 A 
ATOM     10  C   UNL     1      19.132  15.294  43.424  0.00  0.00    +0.000 A 
ENDROOT
BRANCH   1  12
ATOM     11  O   UNL     1      12.520  12.832  43.749  0.00  0.00    +0.000 OA
ATOM     12  C   UNL     1      13.504  12.234  44.139  0.00  0.00    +0.000 C 
ATOM     13  OXT UNL     1      13.494  11.051  44.426  0.00  0.00    +0.000 OA
ENDBRANCH   1  12
TORSDOF 1
ENDMDL
MODEL 7
REMARK VINA RESULT:    -5.090      4.765      6.166
REMARK INTER + INTRA:          -5.460
REMARK INTER:                  -5.390
REMARK INTRA:                  -0.069
REMARK UNBOUND:                -0.072
REMARK  Name = opt04.pdb
REMARK  1 active torsions:
REMARK  status: ('A' for Active; 'I' for Inactive)
REMARK    1  A    between atoms: C_2  and  CA_4
REMARK                            x       y       z     vdW  Elec       q    Type
REMARK                         _______ _______ _______ _____ _____    ______ ____
ROOT
ATOM      1  CA  UNL     1       7.733  12.384  43.025  0.00  0.00    +0.000 A 
ATOM      2  N   UNL     1       8.934  11.902  42.612  0.00  0.00    +0.000 NA
ATOM      3  C   UNL     1       7.647  13.406  43.976  0.00  0.00    +0.000 A 
ATOM      4  C   UNL     1      10.070  12.420  43.132  0.00  0.00    +0.000 A 
ATOM      5  C   UNL     1       8.812  13.941  44.515  0.00  0.00    +0.000 A 
ATOM      6  C   UNL     1      10.043  13.444  44.090  0.00  0.00    +0.000 A 
ATOM      7  C   UNL     1      11.308  11.929  42.711  0.00  0.00    +0.000 A 
ATOM      8  C   UNL     1      11.229  13.960  44.613  0.00  0.00    +0.000 A 
ATOM      9  C   UNL     1      12.494  12.444  43.231  0.00  0.00    +0.000 A 
ATOM     10  C   UNL     1      12.455  13.460  44.182  0.00  0.00    +0.000 A 
ENDROOT
BRANCH   1  12
ATOM     11  O   UNL     1       5.451  11.837  43.084  0.00  0.00    +0.000 OA
ATOM     12  C   UNL     1       6.478  11.795  42.434  0.00  0.00    +0.000 C 
ATOM     13  OXT UNL     1       6.544  11.299  41.325  0.00  0.00    +0.000 OA
ENDBRANCH   1  12
TORSDOF 1
ENDMDL
MODEL 8
REMARK VINA RESULT:    -4.925      2.826      3.852
REMARK INTER + INTRA:          -5.284
REMARK INTER:                  -5.225
REMARK INTRA:                  -0.059
REMARK UNBOUND:                -0.072
REMARK  Name = opt04.pdb
REMARK  1 active torsions:
REMARK  status: ('A' for Active; 'I' for Inactive)
REMARK    1  A    between atoms: C_2  and  CA_4
REMARK                            x       y       z     vdW  Elec       q    Type
REMARK                         _______ _______ _______ _____ _____    ______ ____
ROOT
ATOM      1  CA  UNL     1      15.244  13.760  44.559  0.00  0.00    +0.000 A 
ATOM      2  N   UNL     1      13.987  14.045  44.985  0.00  0.00    +0.000 NA
ATOM      3  C   UNL     1      15.468  13.012  43.399  0.00  0.00    +0.000 A 
ATOM      4  C   UNL     1      12.927  13.595  44.273  0.00  0.00    +0.000 A 
ATOM      5  C   UNL     1      14.383  12.546  42.663  0.00  0.00    +0.000 A 
ATOM      6  C   UNL     1      13.093  12.840  43.103  0.00  0.00    +0.000 A 
ATOM      7  C   UNL     1      11.632  13.886  44.706  0.00  0.00    +0.000 A 
ATOM      8  C   UNL     1      11.984  12.386  42.388  0.00  0.00    +0.000 A 
ATOM      9  C   UNL     1      10.524  13.435  43.992  0.00  0.00    +0.000 A 
ATOM     10  C   UNL     1      10.699  12.685  42.833  0.00  0.00    +0.000 A 
ENDROOT
BRANCH   1  12
ATOM     11  O   UNL     1      16.650  13.752  46.439  0.00  0.00    +0.000 OA
ATOM     12  C   UNL     1      16.412  14.269  45.365  0.00  0.00    +0.000 C 
ATOM     13  OXT UNL     1      17.071  15.183  44.905  0.00  0.00    +0.000 OA
ENDBRANCH   1  12
TORSDOF 1
ENDMDL
MODEL 9
REMARK VINA RESULT:    -4.923      2.555      3.476
REMARK INTER + INTRA:          -5.283
REMARK INTER:                  -5.220
REMARK INTRA:                  -0.063
REMARK UNBOUND:                -0.072
REMARK  Name = opt04.pdb
REMARK  1 active torsions:
REMARK  status: ('A' for Active; 'I' for Inactive)
REMARK    1  A    between atoms: C_2  and  CA_4
REMARK                            x       y       z     vdW  Elec       q    Type
REMARK                         _______ _______ _______ _____ _____    ______ ____
ROOT
ATOM      1  CA  UNL     1      12.377  12.701  42.468  0.00  0.00    +0.000 A 
ATOM      2  N   UNL     1      13.030  13.891  42.440  0.00  0.00    +0.000 NA
ATOM      3  C   UNL     1      12.694  11.718  43.411  0.00  0.00    +0.000 A 
ATOM      4  C   UNL     1      14.009  14.132  43.342  0.00  0.00    +0.000 A 
ATOM      5  C   UNL     1      13.700  11.960  44.341  0.00  0.00    +0.000 A 
ATOM      6  C   UNL     1      14.369  13.182  44.310  0.00  0.00    +0.000 A 
ATOM      7  C   UNL     1      14.683  15.354  43.320  0.00  0.00    +0.000 A 
ATOM      8  C   UNL     1      15.383  13.454  45.229  0.00  0.00    +0.000 A 
ATOM      9  C   UNL     1      15.695  15.628  44.238  0.00  0.00    +0.000 A 
ATOM     10  C   UNL     1      16.046  14.678  45.193  0.00  0.00    +0.000 A 
ENDROOT
BRANCH   1  12
ATOM     11  O   UNL     1      11.361  11.459  40.754  0.00  0.00    +0.000 OA
ATOM     12  C   UNL     1      11.290  12.451  41.454  0.00  0.00    +0.000 C 
ATOM     13  OXT UNL     1      10.381  13.257  41.377  0.00  0.00    +0.000 OA
ENDBRANCH   1  12
TORSDOF 1
ENDMDL
MODEL 10
REMARK VINA RESULT:    -4.807      2.095      2.478
REMARK INTER + INTRA:          -5.160
REMARK INTER:                  -5.101
REMARK INTRA:                  -0.059
REMARK UNBOUND:                -0.072
REMARK  Name = opt04.pdb
REMARK  1 active torsions:
REMARK  status: ('A' for Active; 'I' for Inactive)
REMARK    1  A    between atoms: C_2  and  CA_4
REMARK                            x       y       z     vdW  Elec       q    Type
REMARK                         _______ _______ _______ _____ _____    ______ ____
ROOT
ATOM      1  CA  UNL     1      12.190  12.700  42.476  0.00  0.00    +0.000 A 
ATOM      2  N   UNL     1      11.515  13.711  43.080  0.00  0.00    +0.000 NA
ATOM      3  C   UNL     1      13.588  12.676  42.442  0.00  0.00    +0.000 A 
ATOM      4  C   UNL     1      12.207  14.719  43.659  0.00  0.00    +0.000 A 
ATOM      5  C   UNL     1      14.306  13.709  43.036  0.00  0.00    +0.000 A 
ATOM      6  C   UNL     1      13.610  14.746  43.654  0.00  0.00    +0.000 A 
ATOM      7  C   UNL     1      11.518  15.761  44.282  0.00  0.00    +0.000 A 
ATOM      8  C   UNL     1      14.302  15.797  44.257  0.00  0.00    +0.000 A 
ATOM      9  C   UNL     1      12.208  16.811  44.886  0.00  0.00    +0.000 A 
ATOM     10  C   UNL     1      13.600  16.830  44.874  0.00  0.00    +0.000 A 
ENDROOT
BRANCH   1  12
ATOM     11  O   UNL     1      10.944  10.711  42.546  0.00  0.00    +0.000 OA
ATOM     12  C   UNL     1      11.400  11.586  41.836  0.00  0.00    +0.000 C 
ATOM     13  OXT UNL     1      11.252  11.610  40.628  0.00  0.00    +0.000 OA
ENDBRANCH   1  12
TORSDOF 1
ENDMDL
MODEL 11
REMARK VINA RESULT:    -4.748      1.951      2.990
REMARK INTER + INTRA:          -5.097
REMARK INTER:                  -5.033
REMARK INTRA:                  -0.065
REMARK UNBOUND:                -0.072
REMARK  Name = opt04.pdb
REMARK  1 active torsions:
REMARK  status: ('A' for Active; 'I' for Inactive)
REMARK    1  A    between atoms: C_2  and  CA_4
REMARK                            x       y       z     vdW  Elec       q    Type
REMARK                         _______ _______ _______ _____ _____    ______ ____
ROOT
ATOM      1  CA  UNL     1      14.036  14.084  44.699  0.00  0.00    +0.000 A 
ATOM      2  N   UNL     1      12.826  13.470  44.624  0.00  0.00    +0.000 NA
ATOM      3  C   UNL     1      14.165  15.463  44.508  0.00  0.00    +0.000 A 
ATOM      4  C   UNL     1      11.724  14.207  44.358  0.00  0.00    +0.000 A 
ATOM      5  C   UNL     1      13.035  16.226  44.233  0.00  0.00    +0.000 A 
ATOM      6  C   UNL     1      11.796  15.594  44.156  0.00  0.00    +0.000 A 
ATOM      7  C   UNL     1      10.477  13.582  44.281  0.00  0.00    +0.000 A 
ATOM      8  C   UNL     1      10.644  16.332  43.881  0.00  0.00    +0.000 A 
ATOM      9  C   UNL     1       9.326  14.318  44.008  0.00  0.00    +0.000 A 
ATOM     10  C   UNL     1       9.408  15.693  43.808  0.00  0.00    +0.000 A 
ENDROOT
BRANCH   1  12
ATOM     11  O   UNL     1      16.032  13.629  45.847  0.00  0.00    +0.000 OA
ATOM     12  C   UNL     1      15.253  13.246  44.996  0.00  0.00    +0.000 C 
ATOM     13  OXT UNL     1      15.405  12.214  44.369  0.00  0.00    +0.000 OA
ENDBRANCH   1  12
TORSDOF 1
ENDMDL
MODEL 12
REMARK VINA RESULT:    -4.742      1.509      2.950
REMARK INTER + INTRA:          -5.091
REMARK INTER:                  -5.021
REMARK INTRA:                  -0.070
REMARK UNBOUND:                -0.072
REMARK  Name = opt04.pdb
REMARK  1 active torsions:
REMARK  status: ('A' for Active; 'I' for Inactive)
REMARK    1  A    between atoms: C_2  and  CA_4
REMARK                            x       y       z     vdW  Elec       q    Type
REMARK                         _______ _______ _______ _____ _____    ______ ____
ROOT
ATOM      1  CA  UNL     1      13.993  12.948  44.377  0.00  0.00    +0.000 A 
ATOM      2  N   UNL     1      15.349  12.987  44.436  0.00  0.00    +0.000 NA
ATOM      3  C   UNL     1      13.224  14.109  44.506  0.00  0.00    +0.000 A 
ATOM      4  C   UNL     1      15.970  14.174  44.625  0.00  0.00    +0.000 A 
ATOM      5  C   UNL     1      13.857  15.332  44.701  0.00  0.00    +0.000 A 
ATOM      6  C   UNL     1      15.249  15.370  44.761  0.00  0.00    +0.000 A 
ATOM      7  C   UNL     1      17.365  14.221  44.685  0.00  0.00    +0.000 A 
ATOM      8  C   UNL     1      15.913  16.581  44.957  0.00  0.00    +0.000 A 
ATOM      9  C   UNL     1      18.029  15.431  44.879  0.00  0.00    +0.000 A 
ATOM     10  C   UNL     1      17.304  16.611  45.015  0.00  0.00    +0.000 A 
ENDROOT
BRANCH   1  12
ATOM     11  O   UNL     1      13.915  10.604  44.480  0.00  0.00    +0.000 OA
ATOM     12  C   UNL     1      13.318  11.616  44.167  0.00  0.00    +0.000 C 
ATOM     13  OXT UNL     1      12.199  11.609  43.690  0.00  0.00    +0.000 OA
ENDBRANCH   1  12
TORSDOF 1
ENDMDL
MODEL 13
REMARK VINA RESULT:    -4.740      2.184      3.477
REMARK INTER + INTRA:          -5.089
REMARK INTER:                  -5.029
REMARK INTRA:                  -0.059
REMARK UNBOUND:                -0.072
REMARK  Name = opt04.pdb
REMARK  1 active torsions:
REMARK  status: ('A' for Active; 'I' for Inactive)
REMARK    1  A    between atoms: C_2  and  CA_4
REMARK                            x       y       z     vdW  Elec       q    Type
REMARK                         _______ _______ _______ _____ _____    ______ ____
ROOT
ATOM      1  CA  UNL     1      12.139  12.647  42.776  0.00  0.00    +0.000 A 
ATOM      2  N   UNL     1      13.484  12.578  42.606  0.00  0.00    +0.000 NA
ATOM      3  C   UNL     1      11.560  13.604  43.616  0.00  0.00    +0.000 A 
ATOM      4  C   UNL     1      14.282  13.451  43.263  0.00  0.00    +0.000 A 
ATOM      5  C   UNL     1      12.375  14.504  44.295  0.00  0.00    +0.000 A 
ATOM      6  C   UNL     1      13.755  14.430  44.119  0.00  0.00    +0.000 A 
ATOM      7  C   UNL     1      15.666  13.386  43.091  0.00  0.00    +0.000 A 
ATOM      8  C   UNL     1      14.599  15.318  44.787  0.00  0.00    +0.000 A 
ATOM      9  C   UNL     1      16.510  14.273  43.756  0.00  0.00    +0.000 A 
ATOM     10  C   UNL     1      15.977  15.239  44.604  0.00  0.00    +0.000 A 
ENDROOT
BRANCH   1  12
ATOM     11  O   UNL     1      10.733  10.770  42.662  0.00  0.00    +0.000 OA
ATOM     12  C   UNL     1      11.267  11.666  42.036  0.00  0.00    +0.000 C 
ATOM     13  OXT UNL     1      11.132  11.811  40.835  0.00  0.00    +0.000 OA
ENDBRANCH   1  12
TORSDOF 1
ENDMDL
MODEL 14
REMARK VINA RESULT:    -4.711      3.246      4.661
REMARK INTER + INTRA:          -5.058
REMARK INTER:                  -4.986
REMARK INTRA:                  -0.072
REMARK UNBOUND:                -0.072
REMARK  Name = opt04.pdb
REMARK  1 active torsions:
REMARK  status: ('A' for Active; 'I' for Inactive)
REMARK    1  A    between atoms: C_2  and  CA_4
REMARK                            x       y       z     vdW  Elec       q    Type
REMARK                         _______ _______ _______ _____ _____    ______ ____
ROOT
ATOM      1  CA  UNL     1       9.960  12.527  43.432  0.00  0.00    +0.000 A 
ATOM      2  N   UNL     1      10.704  13.322  44.244  0.00  0.00    +0.000 NA
ATOM      3  C   UNL     1      10.561  11.649  42.524  0.00  0.00    +0.000 A 
ATOM      4  C   UNL     1      12.054  13.264  44.173  0.00  0.00    +0.000 A 
ATOM      5  C   UNL     1      11.948  11.585  42.447  0.00  0.00    +0.000 A 
ATOM      6  C   UNL     1      12.709  12.402  43.281  0.00  0.00    +0.000 A 
ATOM      7  C   UNL     1      12.824  14.078  45.007  0.00  0.00    +0.000 A 
ATOM      8  C   UNL     1      14.103  12.363  43.226  0.00  0.00    +0.000 A 
ATOM      9  C   UNL     1      14.215  14.039  44.954  0.00  0.00    +0.000 A 
ATOM     10  C   UNL     1      14.856  13.181  44.064  0.00  0.00    +0.000 A 
ENDROOT
BRANCH   1  12
ATOM     11  O   UNL     1       7.790  11.969  42.732  0.00  0.00    +0.000 OA
ATOM     12  C   UNL     1       8.458  12.606  43.524  0.00  0.00    +0.000 C 
ATOM     13  OXT UNL     1       7.973  13.307  44.392  0.00  0.00    +0.000 OA
ENDBRANCH   1  12
TORSDOF 1
ENDMDL
MODEL 15
REMARK VINA RESULT:    -4.693      1.424      2.089
REMARK INTER + INTRA:          -5.039
REMARK INTER:                  -4.968
REMARK INTRA:                  -0.071
REMARK UNBOUND:                -0.072
REMARK  Name = opt04.pdb
REMARK  1 active torsions:
REMARK  status: ('A' for Active; 'I' for Inactive)
REMARK    1  A    between atoms: C_2  and  CA_4
REMARK                            x       y       z     vdW  Elec       q    Type
REMARK                         _______ _______ _______ _____ _____    ______ ____
ROOT
ATOM      1  CA  UNL     1      13.451  13.604  44.410  0.00  0.00    +0.000 A 
ATOM      2  N   UNL     1      12.137  13.705  44.082  0.00  0.00    +0.000 NA
ATOM      3  C   UNL     1      14.224  14.740  44.672  0.00  0.00    +0.000 A 
ATOM      4  C   UNL     1      11.564  14.928  44.004  0.00  0.00    +0.000 A 
ATOM      5  C   UNL     1      13.641  16.000  44.594  0.00  0.00    +0.000 A 
ATOM      6  C   UNL     1      12.293  16.100  44.256  0.00  0.00    +0.000 A 
ATOM      7  C   UNL     1      10.213  15.037  43.668  0.00  0.00    +0.000 A 
ATOM      8  C   UNL     1      11.679  17.350  44.168  0.00  0.00    +0.000 A 
ATOM      9  C   UNL     1       9.599  16.285  43.581  0.00  0.00    +0.000 A 
ATOM     10  C   UNL     1      10.331  17.442  43.831  0.00  0.00    +0.000 A 
ENDROOT
BRANCH   1  12
ATOM     11  O   UNL     1      15.283  12.137  44.443  0.00  0.00    +0.000 OA
ATOM     12  C   UNL     1      14.072  12.233  44.491  0.00  0.00    +0.000 C 
ATOM     13  OXT UNL     1      13.331  11.274  44.602  0.00  0.00    +0.000 OA
ENDBRANCH   1  12
TORSDOF 1
ENDMDL
MODEL 16
REMARK VINA RESULT:    -4.688      1.536      2.474
REMARK INTER + INTRA:          -5.034
REMARK INTER:                  -4.962
REMARK INTRA:                  -0.072
REMARK UNBOUND:                -0.072
REMARK  Name = opt04.pdb
REMARK  1 active torsions:
REMARK  status: ('A' for Active; 'I' for Inactive)
REMARK    1  A    between atoms: C_2  and  CA_4
REMARK                            x       y       z     vdW  Elec       q    Type
REMARK                         _______ _______ _______ _____ _____    ______ ____
ROOT
ATOM      1  CA  UNL     1      13.413  13.287  44.127  0.00  0.00    +0.000 A 
ATOM      2  N   UNL     1      13.422  14.643  44.213  0.00  0.00    +0.000 NA
ATOM      3  C   UNL     1      14.525  12.526  44.498  0.00  0.00    +0.000 A 
ATOM      4  C   UNL     1      14.532  15.271  44.665  0.00  0.00    +0.000 A 
ATOM      5  C   UNL     1      15.670  13.166  44.963  0.00  0.00    +0.000 A 
ATOM      6  C   UNL     1      15.677  14.557  45.050  0.00  0.00    +0.000 A 
ATOM      7  C   UNL     1      14.548  16.664  44.757  0.00  0.00    +0.000 A 
ATOM      8  C   UNL     1      16.810  15.228  45.512  0.00  0.00    +0.000 A 
ATOM      9  C   UNL     1      15.678  17.335  45.219  0.00  0.00    +0.000 A 
ATOM     10  C   UNL     1      16.810  16.618  45.596  0.00  0.00    +0.000 A 
ENDROOT
BRANCH   1  12
ATOM     11  O   UNL     1      11.229  13.293  43.264  0.00  0.00    +0.000 OA
ATOM     12  C   UNL     1      12.167  12.606  43.620  0.00  0.00    +0.000 C 
ATOM     13  OXT UNL     1      12.151  11.390  43.589  0.00  0.00    +0.000 OA
ENDBRANCH   1  12
TORSDOF 1
ENDMDL
MODEL 17
REMARK VINA RESULT:    -4.657      1.784      3.128
REMARK INTER + INTRA:          -5.001
REMARK INTER:                  -4.932
REMARK INTRA:                  -0.069
REMARK UNBOUND:                -0.072
REMARK  Name = opt04.pdb
REMARK  1 active torsions:
REMARK  status: ('A' for Active; 'I' for Inactive)
REMARK    1  A    between atoms: C_2  and  CA_4
REMARK                            x       y       z     vdW  Elec       q    Type
REMARK                         _______ _______ _______ _____ _____    ______ ____
ROOT
ATOM      1  CA  UNL     1      12.291  13.541  43.823  0.00  0.00    +0.000 A 
ATOM      2  N   UNL     1      13.414  13.062  44.417  0.00  0.00    +0.000 NA
ATOM      3  C   UNL     1      12.144  14.902  43.536  0.00  0.00    +0.000 A 
ATOM      4  C   UNL     1      14.411  13.917  44.740  0.00  0.00    +0.000 A 
ATOM      5  C   UNL     1      13.165  15.787  43.866  0.00  0.00    +0.000 A 
ATOM      6  C   UNL     1      14.316  15.292  44.476  0.00  0.00    +0.000 A 
ATOM      7  C   UNL     1      15.569  13.430  45.350  0.00  0.00    +0.000 A 
ATOM      8  C   UNL     1      15.358  16.155  44.820  0.00  0.00    +0.000 A 
ATOM      9  C   UNL     1      16.610  14.290  45.692  0.00  0.00    +0.000 A 
ATOM     10  C   UNL     1      16.505  15.653  45.428  0.00  0.00    +0.000 A 
ENDROOT
BRANCH   1  12
ATOM     11  O   UNL     1      11.483  11.412  43.255  0.00  0.00    +0.000 OA
ATOM     12  C   UNL     1      11.191  12.572  43.471  0.00  0.00    +0.000 C 
ATOM     13  OXT UNL     1      10.051  12.994  43.417  0.00  0.00    +0.000 OA
ENDBRANCH   1  12
TORSDOF 1
ENDMDL
MODEL 18
REMARK VINA RESULT:    -4.544      2.576      3.350
REMARK INTER + INTRA:          -4.881
REMARK INTER:                  -4.822
REMARK INTRA:                  -0.060
REMARK UNBOUND:                -0.072
REMARK  Name = opt04.pdb
REMARK  1 active torsions:
REMARK  status: ('A' for Active; 'I' for Inactive)
REMARK    1  A    between atoms: C_2  and  CA_4
REMARK                            x       y       z     vdW  Elec       q    Type
REMARK                         _______ _______ _______ _____ _____    ______ ____
ROOT
ATOM      1  CA  UNL     1      15.941  14.266  44.517  0.00  0.00    +0.000 A 
ATOM      2  N   UNL     1      15.156  15.368  44.404  0.00  0.00    +0.000 NA
ATOM      3  C   UNL     1      15.389  12.991  44.667  0.00  0.00    +0.000 A 
ATOM      4  C   UNL     1      13.811  15.230  44.438  0.00  0.00    +0.000 A 
ATOM      5  C   UNL     1      14.006  12.842  44.704  0.00  0.00    +0.000 A 
ATOM      6  C   UNL     1      13.202  13.975  44.588  0.00  0.00    +0.000 A 
ATOM      7  C   UNL     1      12.998  16.360  44.321  0.00  0.00    +0.000 A 
ATOM      8  C   UNL     1      11.812  13.859  44.622  0.00  0.00    +0.000 A 
ATOM      9  C   UNL     1      11.609  16.245  44.353  0.00  0.00    +0.000 A 
ATOM     10  C   UNL     1      11.016  14.995  44.504  0.00  0.00    +0.000 A 
ENDROOT
BRANCH   1  12
ATOM     11  O   UNL     1      18.072  14.284  45.503  0.00  0.00    +0.000 OA
ATOM     12  C   UNL     1      17.438  14.440  44.477  0.00  0.00    +0.000 C 
ATOM     13  OXT UNL     1      17.953  14.732  43.414  0.00  0.00    +0.000 OA
ENDBRANCH   1  12
TORSDOF 1
ENDMDL
MODEL 19
REMARK VINA RESULT:    -4.397      3.266      4.365
REMARK INTER + INTRA:          -4.726
REMARK INTER:                  -4.666
REMARK INTRA:                  -0.059
REMARK UNBOUND:                -0.072
REMARK  Name = opt04.pdb
REMARK  1 active torsions:
REMARK  status: ('A' for Active; 'I' for Inactive)
REMARK    1  A    between atoms: C_2  and  CA_4
REMARK                            x       y       z     vdW  Elec       q    Type
REMARK                         _______ _______ _______ _____ _____    ______ ____
ROOT
ATOM      1  CA  UNL     1      17.329  14.477  43.852  0.00  0.00    +0.000 A 
ATOM      2  N   UNL     1      16.576  13.435  43.413  0.00  0.00    +0.000 NA
ATOM      3  C   UNL     1      16.764  15.523  44.588  0.00  0.00    +0.000 A 
ATOM      4  C   UNL     1      15.253  13.408  43.692  0.00  0.00    +0.000 A 
ATOM      5  C   UNL     1      15.404  15.502  44.877  0.00  0.00    +0.000 A 
ATOM      6  C   UNL     1      14.634  14.432  44.425  0.00  0.00    +0.000 A 
ATOM      7  C   UNL     1      14.474  12.339  43.244  0.00  0.00    +0.000 A 
ATOM      8  C   UNL     1      13.266  14.382  44.699  0.00  0.00    +0.000 A 
ATOM      9  C   UNL     1      13.109  12.287  43.518  0.00  0.00    +0.000 A 
ATOM     10  C   UNL     1      12.504  13.309  44.245  0.00  0.00    +0.000 A 
ENDROOT
BRANCH   1  12
ATOM     11  O   UNL     1      19.596  14.275  44.426  0.00  0.00    +0.000 OA
ATOM     12  C   UNL     1      18.801  14.489  43.531  0.00  0.00    +0.000 C 
ATOM     13  OXT UNL     1      19.136  14.713  42.382  0.00  0.00    +0.000 OA
ENDBRANCH   1  12
TORSDOF 1
ENDMDL
